version 3
run Lab_erg_ask2_red-0-20250114-22:46:34-34992
attr configname Lab_erg_ask2_red
attr datetime 20250114-22:46:34
attr datetimef 20250114-224634
attr experiment Lab_erg_ask2_red
attr inifile omnetpp.ini
attr iterationvars ""
attr iterationvarsd ""
attr iterationvarsf ""
attr measurement ""
attr network Lab661
attr processid 34992
attr repetition 0
attr replication #0
attr resultdir results
attr runnumber 0
attr seedset 0
config image-path ../../images
config network Lab661
config **.router1.ppp[*].queue.typename RedDropperQueue
config **.router1.ppp[*].queue.red.packetCapacity 5
config **.router1.ppp[*].queue.red.minth 2.5/3
config **.router1.ppp[*].queue.red.maxth 2.5
config **.router1.ppp[*].queue.red.maxp 0.1
config **.router1.ppp[*].queue.red.wq 0.002
config **.router2.ppp[*].queue.typename RedDropperQueue
config **.router2.ppp[*].queue.red.packetCapacity 5
config **.router2.ppp[*].queue.red.minth 2.5/3
config **.router2.ppp[*].queue.red.maxth 2.5
config **.router2.ppp[*].queue.red.maxp 0.1
config **.router2.ppp[*].queue.red.wq 0.002
config sim-time-limit 25s
config **.vector-recording true
config **.tcp.typename Tcp
config **.tcp.advertisedWindow 65535
config **.tcp.mss 1460
config **.tcp.initialSsthresh 65536
config **.tcp.tcpAlgorithmClass "\"TcpReno\""
config **.sender1.numApps 1
config **.sender1.app[0].typename TcpSessionApp
config **.sender1.app[0].connectAddress "\"receiver1\""
config **.sender1.app[0].connectPort 1001
config **.sender1.app[0].tOpen 1s
config **.sender1.app[0].sendBytes 1GB
config **.sender2.numApps 1
config **.sender2.app[0].typename TcpSessionApp
config **.sender2.app[0].connectAddress "\"receiver1\""
config **.sender2.app[0].connectPort 1001
config **.sender2.app[0].tOpen 3s
config **.sender2.app[0].sendBytes 1GB
config **.sender3.numApps 1
config **.sender3.app[0].typename TcpSessionApp
config **.sender3.app[0].connectAddress "\"receiver3\""
config **.sender3.app[0].connectPort 1001
config **.sender3.app[0].tOpen 7s
config **.sender3.app[0].sendBytes 1GB
config **.receiver1.numApps 1
config **.receiver1.app[0].typename TcpSinkApp
config **.receiver1.app[0].localPort 1001
config **.receiver2.numApps 1
config **.receiver2.app[0].typename TcpSinkApp
config **.receiver2.app[0].localPort 1001
config **.receiver3.numApps 1
config **.receiver3.app[0].typename TcpSinkApp
config **.receiver3.app[0].localPort 1001

par Lab661.sender1.pppg$o[0].channel typename "\"ned.DatarateChannel\""
par Lab661.sender1.pppg$o[0].channel disabled false
attr mutable ""
par Lab661.sender1.pppg$o[0].channel delay 0.02s
attr mutable ""
attr unit s
par Lab661.sender1.pppg$o[0].channel datarate 9e+06bps
attr mutable ""
attr unit bps
par Lab661.sender1.pppg$o[0].channel ber 0
attr mutable ""
par Lab661.sender1.pppg$o[0].channel per 0
attr mutable ""
par Lab661.router1.pppg$o[0].channel typename "\"ned.DatarateChannel\""
par Lab661.router1.pppg$o[0].channel disabled false
attr mutable ""
par Lab661.router1.pppg$o[0].channel delay 0.02s
attr mutable ""
attr unit s
par Lab661.router1.pppg$o[0].channel datarate 9e+06bps
attr mutable ""
attr unit bps
par Lab661.router1.pppg$o[0].channel ber 0
attr mutable ""
par Lab661.router1.pppg$o[0].channel per 0
attr mutable ""
par Lab661.sender2.pppg$o[0].channel typename "\"ned.DatarateChannel\""
par Lab661.sender2.pppg$o[0].channel disabled false
attr mutable ""
par Lab661.sender2.pppg$o[0].channel delay 0.02s
attr mutable ""
attr unit s
par Lab661.sender2.pppg$o[0].channel datarate 2e+06bps
attr mutable ""
attr unit bps
par Lab661.sender2.pppg$o[0].channel ber 0
attr mutable ""
par Lab661.sender2.pppg$o[0].channel per 0
attr mutable ""
par Lab661.router1.pppg$o[1].channel typename "\"ned.DatarateChannel\""
par Lab661.router1.pppg$o[1].channel disabled false
attr mutable ""
par Lab661.router1.pppg$o[1].channel delay 0.02s
attr mutable ""
attr unit s
par Lab661.router1.pppg$o[1].channel datarate 2e+06bps
attr mutable ""
attr unit bps
par Lab661.router1.pppg$o[1].channel ber 0
attr mutable ""
par Lab661.router1.pppg$o[1].channel per 0
attr mutable ""
par Lab661.sender3.pppg$o[0].channel typename "\"ned.DatarateChannel\""
par Lab661.sender3.pppg$o[0].channel disabled false
attr mutable ""
par Lab661.sender3.pppg$o[0].channel delay 0.02s
attr mutable ""
attr unit s
par Lab661.sender3.pppg$o[0].channel datarate 2e+07bps
attr mutable ""
attr unit bps
par Lab661.sender3.pppg$o[0].channel ber 0
attr mutable ""
par Lab661.sender3.pppg$o[0].channel per 0
attr mutable ""
par Lab661.router2.pppg$o[0].channel typename "\"ned.DatarateChannel\""
par Lab661.router2.pppg$o[0].channel disabled false
attr mutable ""
par Lab661.router2.pppg$o[0].channel delay 0.02s
attr mutable ""
attr unit s
par Lab661.router2.pppg$o[0].channel datarate 2e+07bps
attr mutable ""
attr unit bps
par Lab661.router2.pppg$o[0].channel ber 0
attr mutable ""
par Lab661.router2.pppg$o[0].channel per 0
attr mutable ""
par Lab661.router1.pppg$o[2].channel typename "\"ned.DatarateChannel\""
par Lab661.router1.pppg$o[2].channel disabled false
attr mutable ""
par Lab661.router1.pppg$o[2].channel delay 0.02s
attr mutable ""
attr unit s
par Lab661.router1.pppg$o[2].channel datarate 2e+06bps
attr mutable ""
attr unit bps
par Lab661.router1.pppg$o[2].channel ber 0
attr mutable ""
par Lab661.router1.pppg$o[2].channel per 0
attr mutable ""
par Lab661.router2.pppg$o[1].channel typename "\"ned.DatarateChannel\""
par Lab661.router2.pppg$o[1].channel disabled false
attr mutable ""
par Lab661.router2.pppg$o[1].channel delay 0.02s
attr mutable ""
attr unit s
par Lab661.router2.pppg$o[1].channel datarate 2e+06bps
attr mutable ""
attr unit bps
par Lab661.router2.pppg$o[1].channel ber 0
attr mutable ""
par Lab661.router2.pppg$o[1].channel per 0
attr mutable ""
par Lab661.receiver1.pppg$o[0].channel typename "\"ned.DatarateChannel\""
par Lab661.receiver1.pppg$o[0].channel disabled false
attr mutable ""
par Lab661.receiver1.pppg$o[0].channel delay 0.02s
attr mutable ""
attr unit s
par Lab661.receiver1.pppg$o[0].channel datarate 2e+06bps
attr mutable ""
attr unit bps
par Lab661.receiver1.pppg$o[0].channel ber 0
attr mutable ""
par Lab661.receiver1.pppg$o[0].channel per 0
attr mutable ""
par Lab661.router2.pppg$o[2].channel typename "\"ned.DatarateChannel\""
par Lab661.router2.pppg$o[2].channel disabled false
attr mutable ""
par Lab661.router2.pppg$o[2].channel delay 0.02s
attr mutable ""
attr unit s
par Lab661.router2.pppg$o[2].channel datarate 2e+06bps
attr mutable ""
attr unit bps
par Lab661.router2.pppg$o[2].channel ber 0
attr mutable ""
par Lab661.router2.pppg$o[2].channel per 0
attr mutable ""
par Lab661.receiver2.pppg$o[0].channel typename "\"ned.DatarateChannel\""
par Lab661.receiver2.pppg$o[0].channel disabled false
attr mutable ""
par Lab661.receiver2.pppg$o[0].channel delay 0.02s
attr mutable ""
attr unit s
par Lab661.receiver2.pppg$o[0].channel datarate 4e+06bps
attr mutable ""
attr unit bps
par Lab661.receiver2.pppg$o[0].channel ber 0
attr mutable ""
par Lab661.receiver2.pppg$o[0].channel per 0
attr mutable ""
par Lab661.router2.pppg$o[3].channel typename "\"ned.DatarateChannel\""
par Lab661.router2.pppg$o[3].channel disabled false
attr mutable ""
par Lab661.router2.pppg$o[3].channel delay 0.02s
attr mutable ""
attr unit s
par Lab661.router2.pppg$o[3].channel datarate 4e+06bps
attr mutable ""
attr unit bps
par Lab661.router2.pppg$o[3].channel ber 0
attr mutable ""
par Lab661.router2.pppg$o[3].channel per 0
attr mutable ""
par Lab661.receiver3.pppg$o[0].channel typename "\"ned.DatarateChannel\""
par Lab661.receiver3.pppg$o[0].channel disabled false
attr mutable ""
par Lab661.receiver3.pppg$o[0].channel delay 0.02s
attr mutable ""
attr unit s
par Lab661.receiver3.pppg$o[0].channel datarate 2e+06bps
attr mutable ""
attr unit bps
par Lab661.receiver3.pppg$o[0].channel ber 0
attr mutable ""
par Lab661.receiver3.pppg$o[0].channel per 0
attr mutable ""
par Lab661.router2.pppg$o[4].channel typename "\"ned.DatarateChannel\""
par Lab661.router2.pppg$o[4].channel disabled false
attr mutable ""
par Lab661.router2.pppg$o[4].channel delay 0.02s
attr mutable ""
attr unit s
par Lab661.router2.pppg$o[4].channel datarate 2e+06bps
attr mutable ""
attr unit bps
par Lab661.router2.pppg$o[4].channel ber 0
attr mutable ""
par Lab661.router2.pppg$o[4].channel per 0
attr mutable ""
par Lab661.router2.pppg$i[0].channel typename "\"ned.IdealChannel\""
par Lab661.router2.ppp[0].phys$o.channel typename "\"ned.IdealChannel\""
par Lab661.router2.pppg$i[1].channel typename "\"ned.IdealChannel\""
par Lab661.router2.ppp[1].phys$o.channel typename "\"ned.IdealChannel\""
par Lab661.router2.pppg$i[2].channel typename "\"ned.IdealChannel\""
par Lab661.router2.ppp[2].phys$o.channel typename "\"ned.IdealChannel\""
par Lab661.router2.pppg$i[3].channel typename "\"ned.IdealChannel\""
par Lab661.router2.ppp[3].phys$o.channel typename "\"ned.IdealChannel\""
par Lab661.router2.pppg$i[4].channel typename "\"ned.IdealChannel\""
par Lab661.router2.ppp[4].phys$o.channel typename "\"ned.IdealChannel\""
par Lab661.router2.interfaceTable typename "\"inet.networklayer.common.InterfaceTable\""
par Lab661.router2.interfaceTable displayAddresses false
par Lab661.router2.cb typename "\"inet.common.MessageDispatcher\""
par Lab661.router2.cb displayStringTextFormat "\"processed %p pk (%l)\""
par Lab661.router2.cb forwardServiceRegistration true
par Lab661.router2.cb forwardProtocolRegistration true
par Lab661.router2.bl typename "\"inet.common.MessageDispatcher\""
par Lab661.router2.bl displayStringTextFormat "\"processed %p pk (%l)\""
par Lab661.router2.bl forwardServiceRegistration true
par Lab661.router2.bl forwardProtocolRegistration true
par Lab661.router2.li typename "\"inet.common.MessageDispatcher\""
par Lab661.router2.li displayStringTextFormat "\"processed %p pk (%l)\""
par Lab661.router2.li forwardServiceRegistration true
par Lab661.router2.li forwardProtocolRegistration true
par Lab661.router2.lo[0].upperLayerIn.channel typename "\"ned.IdealChannel\""
par Lab661.router2.lo[0].lo.upperLayerOut.channel typename "\"ned.IdealChannel\""
par Lab661.router2.lo[0].lo typename "\"inet.linklayer.loopback.Loopback\""
par Lab661.router2.lo[0].lo interfaceTableModule "\"Lab661.router2.interfaceTable\""
par Lab661.router2.lo[0].lo mtu 4470B
attr unit B
scalar Lab661.router2.lo[0].lo rcvdPkFromHl:count 0
attr interpolationmode none
attr recordingmode count
attr source packetReceivedFromUpper
attr title "packets received from higher layer, count"
scalar Lab661.router2.lo[0].lo rcvdPkFromHl:sum(packetBytes) 0
attr interpolationmode none
attr recordingmode sum(packetBytes)
attr source packetReceivedFromUpper
attr title "packets received from higher layer, sum(packetBytes)"
scalar Lab661.router2.lo[0].lo passedUpPk:count 0
attr interpolationmode none
attr recordingmode count
attr source packetSentToUpper
attr title "packets passed to higher layer, count"
scalar Lab661.router2.lo[0].lo passedUpPk:sum(packetBytes) 0
attr interpolationmode none
attr recordingmode sum(packetBytes)
attr source packetSentToUpper
attr title "packets passed to higher layer, sum(packetBytes)"
par Lab661.router2.lo[0] typename "\"inet.linklayer.loopback.LoopbackInterface\""
par Lab661.router2.lo[0] displayStringTextFormat "\"%a (%i)\\n%m\""
par Lab661.router2.lo[0] recordPcap false
par Lab661.router2.lo[0] numPcapRecorders 0
par Lab661.router2.lo[0] interfaceTableModule "\"Lab661.router2.interfaceTable\""
scalar Lab661.router2.lo[0] packetDropInterfaceDown:count 0
attr interpolationmode none
attr recordingmode count
attr source packetDropReasonIsInterfaceDown(packetDropped)
attr title "packet drops: interface down, count"
scalar Lab661.router2.lo[0] packetDropInterfaceDown:sum(packetBytes) 0
attr interpolationmode none
attr recordingmode sum(packetBytes)
attr source packetDropReasonIsInterfaceDown(packetDropped)
attr title "packet drops: interface down, sum(packetBytes)"
scalar Lab661.router2.lo[0] packetDropNoCarrier:count 0
attr interpolationmode none
attr recordingmode count
attr source packetDropReasonIsNoCarrier(packetDropped)
attr title "packet drops: no carrier, count"
scalar Lab661.router2.lo[0] packetDropNoCarrier:sum(packetBytes) 0
attr interpolationmode none
attr recordingmode sum(packetBytes)
attr source packetDropReasonIsNoCarrier(packetDropped)
attr title "packet drops: no carrier, sum(packetBytes)"
par Lab661.router2.ppp[0].phys$i.channel typename "\"ned.IdealChannel\""
par Lab661.router2.ppp[0].ppp.phys$o.channel typename "\"ned.IdealChannel\""
par Lab661.router2.ppp[0].ppp.upperLayerOut.channel typename "\"ned.IdealChannel\""
par Lab661.router2.ppp[0].upperLayerIn.channel typename "\"ned.IdealChannel\""
par Lab661.router2.ppp[0].queue.in.channel typename "\"ned.IdealChannel\""
par Lab661.router2.ppp[0].queue.fifo.out.channel typename "\"ned.IdealChannel\""
par Lab661.router2.ppp[0].queue.red typename "\"inet.queueing.filter.RedDropper\""
par Lab661.router2.ppp[0].queue.red displayStringTextFormat "\"dropped %d/%p pk (%k/%l)\""
par Lab661.router2.ppp[0].queue.red backpressure false
par Lab661.router2.ppp[0].queue.red collectionModule "\"\""
par Lab661.router2.ppp[0].queue.red wq 0.002
par Lab661.router2.ppp[0].queue.red minth 0.833333
par Lab661.router2.ppp[0].queue.red maxth 2.5
par Lab661.router2.ppp[0].queue.red maxp 0.1
par Lab661.router2.ppp[0].queue.red pkrate 150
par Lab661.router2.ppp[0].queue.red useEcn false
par Lab661.router2.ppp[0].queue.red packetCapacity 5
scalar Lab661.router2.ppp[0].queue.red outgoingPackets:count 1886
attr recordingmode count
attr source "merge(packetPushedOut, packetPulledOut)"
attr title "outgoing packets, count"
attr unit pk
scalar Lab661.router2.ppp[0].queue.red outgoingPacketLengths:sum 603552
attr interpolationmode none
attr recordingmode sum
attr source "packetLength(merge(packetPushedOut, packetPulledOut))"
attr title "outgoing packet lengths, sum"
attr unit b
statistic Lab661.router2.ppp[0].queue.red outgoingPacketLengths:histogram
field count 1886
field mean 320.01696712619
field stddev 0.73685007849389
field min 320
field max 352
field sum 603552
field sqrsum 193147904
attr interpolationmode none
attr recordingmode histogram
attr source "packetLength(merge(packetPushedOut, packetPulledOut))"
attr title "outgoing packet lengths"
attr unit b
bin	-inf	0
bin	312	0
bin	313	0
bin	314	0
bin	315	0
bin	316	0
bin	317	0
bin	318	0
bin	319	0
bin	320	1885
bin	321	0
bin	322	0
bin	323	0
bin	324	0
bin	325	0
bin	326	0
bin	327	0
bin	328	0
bin	329	0
bin	330	0
bin	331	0
bin	332	0
bin	333	0
bin	334	0
bin	335	0
bin	336	0
bin	337	0
bin	338	0
bin	339	0
bin	340	0
bin	341	0
bin	342	0
bin	343	0
bin	344	0
bin	345	0
bin	346	0
bin	347	0
bin	348	0
bin	349	0
bin	350	0
bin	351	0
bin	352	1
bin	353	0
bin	354	0
bin	355	0
bin	356	0
bin	357	0
bin	358	0
bin	359	0
bin	360	0
scalar Lab661.router2.ppp[0].queue.red flowOutgoingPacketLengths:sum 0
attr interpolationmode none
attr recordingmode sum
attr source "packetLength(demuxFlow(merge(packetPushedOut, packetPulledOut)))"
attr title "flow specific outgoing packet lengths, sum"
attr unit b
statistic Lab661.router2.ppp[0].queue.red flowOutgoingPacketLengths:histogram
field count 0
field mean -nan
field stddev nan
field min nan
field max nan
field sum 0
field sqrsum 0
attr interpolationmode none
attr recordingmode histogram
attr source "packetLength(demuxFlow(merge(packetPushedOut, packetPulledOut)))"
attr title "flow specific outgoing packet lengths"
attr unit b
bin	-inf	0
bin	0	0
bin	1	0
scalar Lab661.router2.ppp[0].queue.red incomingPackets:count 1886
attr recordingmode count
attr source "merge(packetPushedIn, packetPulledIn)"
attr title "incoming packets, count"
attr unit pk
scalar Lab661.router2.ppp[0].queue.red incomingPacketLengths:sum 603552
attr interpolationmode none
attr recordingmode sum
attr source "packetLength(merge(packetPushedIn, packetPulledIn))"
attr title "incoming packet lengths, sum"
attr unit b
statistic Lab661.router2.ppp[0].queue.red incomingPacketLengths:histogram
field count 1886
field mean 320.01696712619
field stddev 0.73685007849389
field min 320
field max 352
field sum 603552
field sqrsum 193147904
attr interpolationmode none
attr recordingmode histogram
attr source "packetLength(merge(packetPushedIn, packetPulledIn))"
attr title "incoming packet lengths"
attr unit b
bin	-inf	0
bin	312	0
bin	313	0
bin	314	0
bin	315	0
bin	316	0
bin	317	0
bin	318	0
bin	319	0
bin	320	1885
bin	321	0
bin	322	0
bin	323	0
bin	324	0
bin	325	0
bin	326	0
bin	327	0
bin	328	0
bin	329	0
bin	330	0
bin	331	0
bin	332	0
bin	333	0
bin	334	0
bin	335	0
bin	336	0
bin	337	0
bin	338	0
bin	339	0
bin	340	0
bin	341	0
bin	342	0
bin	343	0
bin	344	0
bin	345	0
bin	346	0
bin	347	0
bin	348	0
bin	349	0
bin	350	0
bin	351	0
bin	352	1
bin	353	0
bin	354	0
bin	355	0
bin	356	0
bin	357	0
bin	358	0
bin	359	0
bin	360	0
scalar Lab661.router2.ppp[0].queue.red flowIncomingPacketLengths:sum 0
attr interpolationmode none
attr recordingmode sum
attr source "packetLength(demuxFlow(merge(packetPushedIn, packetPulledIn)))"
attr title "flow specific incoming packet lengths, sum"
attr unit b
statistic Lab661.router2.ppp[0].queue.red flowIncomingPacketLengths:histogram
field count 0
field mean -nan
field stddev nan
field min nan
field max nan
field sum 0
field sqrsum 0
attr interpolationmode none
attr recordingmode histogram
attr source "packetLength(demuxFlow(merge(packetPushedIn, packetPulledIn)))"
attr title "flow specific incoming packet lengths"
attr unit b
bin	-inf	0
bin	0	0
bin	1	0
scalar Lab661.router2.ppp[0].queue.red droppedPackets:count 0
attr recordingmode count
attr source packetDropped
attr title "dropped packets, count"
attr unit pk
scalar Lab661.router2.ppp[0].queue.red droppedPacketLengths:sum 0
attr interpolationmode none
attr recordingmode sum
attr source packetLength(packetDropped)
attr title "dropped packet lengths, sum"
attr unit b
statistic Lab661.router2.ppp[0].queue.red droppedPacketLengths:histogram
field count 0
field mean -nan
field stddev nan
field min nan
field max nan
field sum 0
field sqrsum 0
attr interpolationmode none
attr recordingmode histogram
attr source packetLength(packetDropped)
attr title "dropped packet lengths"
attr unit b
bin	-inf	0
bin	0	0
bin	1	0
scalar Lab661.router2.ppp[0].queue.red flowDroppedPacketLengths:sum 0
attr interpolationmode none
attr recordingmode sum
attr source packetLength(demuxFlow(packetDropped))
attr title "flow specific dropped packet lengths, sum"
attr unit b
statistic Lab661.router2.ppp[0].queue.red flowDroppedPacketLengths:histogram
field count 0
field mean -nan
field stddev nan
field min nan
field max nan
field sum 0
field sqrsum 0
attr interpolationmode none
attr recordingmode histogram
attr source packetLength(demuxFlow(packetDropped))
attr title "flow specific dropped packet lengths"
attr unit b
bin	-inf	0
bin	0	0
bin	1	0
scalar Lab661.router2.ppp[0].queue.red packetDropCongestion:count 0
attr interpolationmode none
attr recordingmode count
attr source packetDropReasonIsCongestion(packetDropped)
attr title "packet drop: congestion, count"
scalar Lab661.router2.ppp[0].queue.red packetDropCongestion:sum(packetBytes) 0
attr interpolationmode none
attr recordingmode sum(packetBytes)
attr source packetDropReasonIsCongestion(packetDropped)
attr title "packet drop: congestion, sum(packetBytes)"
par Lab661.router2.ppp[0].queue.fifo typename "\"inet.queueing.queue.PacketQueue\""
par Lab661.router2.ppp[0].queue.fifo displayStringTextFormat "\"contains %p pk (%l) pushed %u\\npulled %o removed %r dropped %d\""
par Lab661.router2.ppp[0].queue.fifo packetCapacity -1
par Lab661.router2.ppp[0].queue.fifo dataCapacity -1b
attr unit b
par Lab661.router2.ppp[0].queue.fifo dropperClass "\"\""
par Lab661.router2.ppp[0].queue.fifo comparatorClass "\"\""
par Lab661.router2.ppp[0].queue.fifo bufferModule "\"\""
scalar Lab661.router2.ppp[0].queue.fifo queueLength:last 0
attr autoWarmupFilter false
attr interpolationmode sample-hold
attr recordingmode last
attr source "warmup(atomic(constant0(packetPushEnded) + count(packetPushStarted) - count(packetPulled) - count(packetRemoved) - count(packetDropped)))"
attr title "queue length, last"
attr unit pk
scalar Lab661.router2.ppp[0].queue.fifo queueLength:max 0
attr autoWarmupFilter false
attr interpolationmode sample-hold
attr recordingmode max
attr source "warmup(atomic(constant0(packetPushEnded) + count(packetPushStarted) - count(packetPulled) - count(packetRemoved) - count(packetDropped)))"
attr title "queue length, max"
attr unit pk
scalar Lab661.router2.ppp[0].queue.fifo queueLength:timeavg 0
attr autoWarmupFilter false
attr interpolationmode sample-hold
attr recordingmode timeavg
attr source "warmup(atomic(constant0(packetPushEnded) + count(packetPushStarted) - count(packetPulled) - count(packetRemoved) - count(packetDropped)))"
attr title "queue length, timeavg"
attr unit pk
scalar Lab661.router2.ppp[0].queue.fifo queueBitLength:last 0
attr autoWarmupFilter false
attr interpolationmode sample-hold
attr recordingmode last
attr source "warmup(atomic(constant0(packetPushEnded) + sum(packetLength(packetPushStarted)) - sum(packetLength(packetPulled)) - sum(packetLength(packetRemoved)) - sum(packetLength(packetDropped))))"
attr title "queue bit length, last"
attr unit b
scalar Lab661.router2.ppp[0].queue.fifo queueBitLength:max 0
attr autoWarmupFilter false
attr interpolationmode sample-hold
attr recordingmode max
attr source "warmup(atomic(constant0(packetPushEnded) + sum(packetLength(packetPushStarted)) - sum(packetLength(packetPulled)) - sum(packetLength(packetRemoved)) - sum(packetLength(packetDropped))))"
attr title "queue bit length, max"
attr unit b
scalar Lab661.router2.ppp[0].queue.fifo queueBitLength:timeavg 0
attr autoWarmupFilter false
attr interpolationmode sample-hold
attr recordingmode timeavg
attr source "warmup(atomic(constant0(packetPushEnded) + sum(packetLength(packetPushStarted)) - sum(packetLength(packetPulled)) - sum(packetLength(packetRemoved)) - sum(packetLength(packetDropped))))"
attr title "queue bit length, timeavg"
attr unit b
statistic Lab661.router2.ppp[0].queue.fifo queueingTime:histogram
field count 1886
field mean 0
field stddev 0
field min 0
field max 0
field sum 0
field sqrsum 0
attr interpolationmode none
attr recordingmode histogram
attr source queueingTime(packetPulled)
attr title "queueing times"
attr unit s
bin	-inf	0
bin	-0.5	0
bin	-0.48	0
bin	-0.46	0
bin	-0.44	0
bin	-0.42	0
bin	-0.4	0
bin	-0.38	0
bin	-0.36	0
bin	-0.34	0
bin	-0.32	0
bin	-0.3	0
bin	-0.28	0
bin	-0.26	0
bin	-0.24	0
bin	-0.22	0
bin	-0.2	0
bin	-0.18	0
bin	-0.16	0
bin	-0.14	0
bin	-0.12	0
bin	-0.1	0
bin	-0.08	0
bin	-0.06	0
bin	-0.04	0
bin	-0.02	0
bin	0	1886
bin	0.02	0
bin	0.04	0
bin	0.06	0
bin	0.08	0
bin	0.1	0
bin	0.12	0
bin	0.14	0
bin	0.16	0
bin	0.18	0
bin	0.2	0
bin	0.22	0
bin	0.24	0
bin	0.26	0
bin	0.28	0
bin	0.3	0
bin	0.32	0
bin	0.34	0
bin	0.36	0
bin	0.38	0
bin	0.4	0
bin	0.42	0
bin	0.44	0
bin	0.46	0
bin	0.48	0
bin	0.5	0
scalar Lab661.router2.ppp[0].queue.fifo outgoingPackets:count 1886
attr recordingmode count
attr source packetPulled
attr title "outgoing packets, count"
attr unit pk
scalar Lab661.router2.ppp[0].queue.fifo outgoingPacketLengths:sum 603552
attr interpolationmode none
attr recordingmode sum
attr source packetLength(packetPulled)
attr title "outgoing packet lengths, sum"
attr unit b
statistic Lab661.router2.ppp[0].queue.fifo outgoingPacketLengths:histogram
field count 1886
field mean 320.01696712619
field stddev 0.73685007849389
field min 320
field max 352
field sum 603552
field sqrsum 193147904
attr interpolationmode none
attr recordingmode histogram
attr source packetLength(packetPulled)
attr title "outgoing packet lengths"
attr unit b
bin	-inf	0
bin	312	0
bin	313	0
bin	314	0
bin	315	0
bin	316	0
bin	317	0
bin	318	0
bin	319	0
bin	320	1885
bin	321	0
bin	322	0
bin	323	0
bin	324	0
bin	325	0
bin	326	0
bin	327	0
bin	328	0
bin	329	0
bin	330	0
bin	331	0
bin	332	0
bin	333	0
bin	334	0
bin	335	0
bin	336	0
bin	337	0
bin	338	0
bin	339	0
bin	340	0
bin	341	0
bin	342	0
bin	343	0
bin	344	0
bin	345	0
bin	346	0
bin	347	0
bin	348	0
bin	349	0
bin	350	0
bin	351	0
bin	352	1
bin	353	0
bin	354	0
bin	355	0
bin	356	0
bin	357	0
bin	358	0
bin	359	0
bin	360	0
statistic Lab661.router2.ppp[0].queue.fifo flowQueueingTime:histogram
field count 0
field mean -nan
field stddev nan
field min nan
field max nan
field sum 0
field sqrsum 0
attr interpolationmode none
attr recordingmode histogram
attr source queueingTime(demuxFlow(packetPulled))
attr title "flow queueing times"
attr unit s
bin	-inf	0
bin	0	0
bin	1	0
scalar Lab661.router2.ppp[0].queue.fifo incomingPackets:count 1886
attr recordingmode count
attr source packetPushStarted
attr title "incoming packets, count"
attr unit pk
scalar Lab661.router2.ppp[0].queue.fifo incomingPacketLengths:sum 603552
attr interpolationmode none
attr recordingmode sum
attr source packetLength(packetPushStarted)
attr title "incoming packet lengths, sum"
attr unit b
statistic Lab661.router2.ppp[0].queue.fifo incomingPacketLengths:histogram
field count 1886
field mean 320.01696712619
field stddev 0.73685007849389
field min 320
field max 352
field sum 603552
field sqrsum 193147904
attr interpolationmode none
attr recordingmode histogram
attr source packetLength(packetPushStarted)
attr title "incoming packet lengths"
attr unit b
bin	-inf	0
bin	312	0
bin	313	0
bin	314	0
bin	315	0
bin	316	0
bin	317	0
bin	318	0
bin	319	0
bin	320	1885
bin	321	0
bin	322	0
bin	323	0
bin	324	0
bin	325	0
bin	326	0
bin	327	0
bin	328	0
bin	329	0
bin	330	0
bin	331	0
bin	332	0
bin	333	0
bin	334	0
bin	335	0
bin	336	0
bin	337	0
bin	338	0
bin	339	0
bin	340	0
bin	341	0
bin	342	0
bin	343	0
bin	344	0
bin	345	0
bin	346	0
bin	347	0
bin	348	0
bin	349	0
bin	350	0
bin	351	0
bin	352	1
bin	353	0
bin	354	0
bin	355	0
bin	356	0
bin	357	0
bin	358	0
bin	359	0
bin	360	0
scalar Lab661.router2.ppp[0].queue.fifo droppedPacketsQueueOverflow:count 0
attr interpolationmode none
attr recordingmode count
attr source packetDropReasonIsQueueOverflow(packetDropped)
attr title "dropped packets: queue overflow, count"
attr unit pk
scalar Lab661.router2.ppp[0].queue.fifo droppedPacketLengthsQueueOverflow:sum 0
attr interpolationmode none
attr recordingmode sum
attr source packetLength(packetDropReasonIsQueueOverflow(packetDropped))
attr title "dropped packet lengths: queue overflow, sum"
attr unit b
par Lab661.router2.ppp[0].queue typename "\"inet.queueing.queue.RedDropperQueue\""
par Lab661.router2.ppp[0].queue displayStringTextFormat "\"contains %p pk (%l) pushed %u created %c\\n pulled %o removed %r dropped %d\""
par Lab661.router2.ppp[0].queue packetCapacity 10000
par Lab661.router2.ppp[0].queue dataCapacity -1b
attr unit b
par Lab661.router2.ppp[0].queue dropperClass "\"\""
scalar Lab661.router2.ppp[0].queue queueLength:last -1886
attr autoWarmupFilter false
attr interpolationmode sample-hold
attr recordingmode last
attr source "warmup(atomic(constant0(localSignal(packetPushEnded)) + count(localSignal(packetPushStarted)) - count(localSignal(packetPulled)) - count(localSignal(packetRemoved)) - count(localSignal(packetDropped))))"
attr title "queue length, last"
attr unit pk
scalar Lab661.router2.ppp[0].queue queueLength:max 0
attr autoWarmupFilter false
attr interpolationmode sample-hold
attr recordingmode max
attr source "warmup(atomic(constant0(localSignal(packetPushEnded)) + count(localSignal(packetPushStarted)) - count(localSignal(packetPulled)) - count(localSignal(packetRemoved)) - count(localSignal(packetDropped))))"
attr title "queue length, max"
attr unit pk
scalar Lab661.router2.ppp[0].queue queueLength:timeavg -591.78242515133
attr autoWarmupFilter false
attr interpolationmode sample-hold
attr recordingmode timeavg
attr source "warmup(atomic(constant0(localSignal(packetPushEnded)) + count(localSignal(packetPushStarted)) - count(localSignal(packetPulled)) - count(localSignal(packetRemoved)) - count(localSignal(packetDropped))))"
attr title "queue length, timeavg"
attr unit pk
scalar Lab661.router2.ppp[0].queue queueBitLength:last -603552
attr autoWarmupFilter false
attr interpolationmode sample-hold
attr recordingmode last
attr source "warmup(atomic(constant0(localSignal(packetPushEnded)) + sum(packetLength(localSignal(packetPushStarted))) - sum(packetLength(localSignal(packetPulled))) - sum(packetLength(localSignal(packetRemoved))) - sum(packetLength(localSignal(packetDropped)))))"
attr title "queue bit length, last"
attr unit b
scalar Lab661.router2.ppp[0].queue queueBitLength:max 0
attr autoWarmupFilter false
attr interpolationmode sample-hold
attr recordingmode max
attr source "warmup(atomic(constant0(localSignal(packetPushEnded)) + sum(packetLength(localSignal(packetPushStarted))) - sum(packetLength(localSignal(packetPulled))) - sum(packetLength(localSignal(packetRemoved))) - sum(packetLength(localSignal(packetDropped)))))"
attr title "queue bit length, max"
attr unit b
scalar Lab661.router2.ppp[0].queue queueBitLength:timeavg -189393.33870007
attr autoWarmupFilter false
attr interpolationmode sample-hold
attr recordingmode timeavg
attr source "warmup(atomic(constant0(localSignal(packetPushEnded)) + sum(packetLength(localSignal(packetPushStarted))) - sum(packetLength(localSignal(packetPulled))) - sum(packetLength(localSignal(packetRemoved))) - sum(packetLength(localSignal(packetDropped)))))"
attr title "queue bit length, timeavg"
attr unit b
statistic Lab661.router2.ppp[0].queue queueingTime:histogram
field count 1886
field mean 0
field stddev 0
field min 0
field max 0
field sum 0
field sqrsum 0
attr interpolationmode none
attr recordingmode histogram
attr source queueingTime(localSignal(packetPulled))
attr title "queueing times"
attr unit s
bin	-inf	0
bin	-0.5	0
bin	-0.48	0
bin	-0.46	0
bin	-0.44	0
bin	-0.42	0
bin	-0.4	0
bin	-0.38	0
bin	-0.36	0
bin	-0.34	0
bin	-0.32	0
bin	-0.3	0
bin	-0.28	0
bin	-0.26	0
bin	-0.24	0
bin	-0.22	0
bin	-0.2	0
bin	-0.18	0
bin	-0.16	0
bin	-0.14	0
bin	-0.12	0
bin	-0.1	0
bin	-0.08	0
bin	-0.06	0
bin	-0.04	0
bin	-0.02	0
bin	0	1886
bin	0.02	0
bin	0.04	0
bin	0.06	0
bin	0.08	0
bin	0.1	0
bin	0.12	0
bin	0.14	0
bin	0.16	0
bin	0.18	0
bin	0.2	0
bin	0.22	0
bin	0.24	0
bin	0.26	0
bin	0.28	0
bin	0.3	0
bin	0.32	0
bin	0.34	0
bin	0.36	0
bin	0.38	0
bin	0.4	0
bin	0.42	0
bin	0.44	0
bin	0.46	0
bin	0.48	0
bin	0.5	0
scalar Lab661.router2.ppp[0].queue outgoingPackets:count 1886
attr recordingmode count
attr source localSignal(packetPulled)
attr title "outgoing packets, count"
attr unit pk
scalar Lab661.router2.ppp[0].queue outgoingPacketLengths:sum 603552
attr interpolationmode none
attr recordingmode sum
attr source packetLength(localSignal(packetPulled))
attr title "outgoing packet lengths, sum"
attr unit b
statistic Lab661.router2.ppp[0].queue outgoingPacketLengths:histogram
field count 1886
field mean 320.01696712619
field stddev 0.73685007849389
field min 320
field max 352
field sum 603552
field sqrsum 193147904
attr interpolationmode none
attr recordingmode histogram
attr source packetLength(localSignal(packetPulled))
attr title "outgoing packet lengths"
attr unit b
bin	-inf	0
bin	312	0
bin	313	0
bin	314	0
bin	315	0
bin	316	0
bin	317	0
bin	318	0
bin	319	0
bin	320	1885
bin	321	0
bin	322	0
bin	323	0
bin	324	0
bin	325	0
bin	326	0
bin	327	0
bin	328	0
bin	329	0
bin	330	0
bin	331	0
bin	332	0
bin	333	0
bin	334	0
bin	335	0
bin	336	0
bin	337	0
bin	338	0
bin	339	0
bin	340	0
bin	341	0
bin	342	0
bin	343	0
bin	344	0
bin	345	0
bin	346	0
bin	347	0
bin	348	0
bin	349	0
bin	350	0
bin	351	0
bin	352	1
bin	353	0
bin	354	0
bin	355	0
bin	356	0
bin	357	0
bin	358	0
bin	359	0
bin	360	0
statistic Lab661.router2.ppp[0].queue flowQueueingTime:histogram
field count 0
field mean -nan
field stddev nan
field min nan
field max nan
field sum 0
field sqrsum 0
attr interpolationmode none
attr recordingmode histogram
attr source queueingTime(demuxFlow(localSignal(packetPulled)))
attr title "flow queueing times"
attr unit s
bin	-inf	0
bin	0	0
bin	1	0
scalar Lab661.router2.ppp[0].queue incomingPackets:count 0
attr recordingmode count
attr source localSignal(packetPushStarted)
attr title "incoming packets, count"
attr unit pk
scalar Lab661.router2.ppp[0].queue incomingPacketLengths:sum 0
attr interpolationmode none
attr recordingmode sum
attr source packetLength(localSignal(packetPushStarted))
attr title "incoming packet lengths, sum"
attr unit b
statistic Lab661.router2.ppp[0].queue incomingPacketLengths:histogram
field count 0
field mean -nan
field stddev nan
field min nan
field max nan
field sum 0
field sqrsum 0
attr interpolationmode none
attr recordingmode histogram
attr source packetLength(localSignal(packetPushStarted))
attr title "incoming packet lengths"
attr unit b
bin	-inf	0
bin	0	0
bin	1	0
scalar Lab661.router2.ppp[0].queue droppedPacketsQueueOverflow:count 0
attr interpolationmode none
attr recordingmode count
attr source packetDropReasonIsQueueOverflow(localSignal(packetDropped))
attr title "dropped packets: queue overflow, count"
attr unit pk
scalar Lab661.router2.ppp[0].queue droppedPacketLengthsQueueOverflow:sum 0
attr interpolationmode none
attr recordingmode sum
attr source packetLength(packetDropReasonIsQueueOverflow(localSignal(packetDropped)))
attr title "dropped packet lengths: queue overflow, sum"
attr unit b
par Lab661.router2.ppp[0].ppp typename "\"inet.linklayer.ppp.Ppp\""
par Lab661.router2.ppp[0].ppp interfaceTableModule "\"Lab661.router2.interfaceTable\""
par Lab661.router2.ppp[0].ppp displayStringTextFormat "\"rate: %b\\nsent: %s, rcvd: %r\\nqueue: %q, drop: %d\""
par Lab661.router2.ppp[0].ppp sendRawBytes false
par Lab661.router2.ppp[0].ppp mtu 4470B
attr unit B
par Lab661.router2.ppp[0].ppp stopOperationExtraTime -1s
attr unit s
par Lab661.router2.ppp[0].ppp stopOperationTimeout 2s
attr unit s
scalar Lab661.router2.ppp[0].ppp transmissionState:timeavg 0.001418336
attr interpolationmode sample-hold
attr recordingmode timeavg
attr source transmissionStateChanged
attr title "tx state, timeavg"
scalar Lab661.router2.ppp[0].ppp rxPkOk:count 1921
attr interpolationmode none
attr recordingmode count
attr source rxPkOk
attr title "packets received OK, count"
scalar Lab661.router2.ppp[0].ppp rxPkOk:sum(packetBytes) 2892031
attr interpolationmode none
attr recordingmode sum(packetBytes)
attr source rxPkOk
attr title "packets received OK, sum(packetBytes)"
scalar Lab661.router2.ppp[0].ppp txPk:count 1886
attr interpolationmode none
attr recordingmode count
attr source packetSentToLower
attr title "packets transmitted, count"
scalar Lab661.router2.ppp[0].ppp txPk:sum(packetBytes) 88646
attr interpolationmode none
attr recordingmode sum(packetBytes)
attr source packetSentToLower
attr title "packets transmitted, sum(packetBytes)"
scalar Lab661.router2.ppp[0].ppp rcvdPkFromHl:count 1886
attr interpolationmode none
attr recordingmode count
attr source packetReceivedFromUpper
attr title "packets received from higher layer, count"
scalar Lab661.router2.ppp[0].ppp rcvdPkFromHl:sum(packetBytes) 75444
attr interpolationmode none
attr recordingmode sum(packetBytes)
attr source packetReceivedFromUpper
attr title "packets received from higher layer, sum(packetBytes)"
scalar Lab661.router2.ppp[0].ppp passedUpPk:count 1921
attr interpolationmode none
attr recordingmode count
attr source packetSentToUpper
attr title "packets passed to higher layer, count"
scalar Lab661.router2.ppp[0].ppp passedUpPk:sum(packetBytes) 2878584
attr interpolationmode none
attr recordingmode sum(packetBytes)
attr source packetSentToUpper
attr title "packets passed to higher layer, sum(packetBytes)"
scalar Lab661.router2.ppp[0].ppp packetDropIncorrectlyReceived:count 0
attr interpolationmode none
attr recordingmode count
attr source packetDropReasonIsIncorrectlyReceived(packetDropped)
attr title "packet drop: incorrectly received, count"
scalar Lab661.router2.ppp[0].ppp packetDropIncorrectlyReceived:sum(packetBytes) 0
attr interpolationmode none
attr recordingmode sum(packetBytes)
attr source packetDropReasonIsIncorrectlyReceived(packetDropped)
attr title "packet drop: incorrectly received, sum(packetBytes)"
scalar Lab661.router2.ppp[0].ppp packetDropInterfaceDown:count 0
attr interpolationmode none
attr recordingmode count
attr source packetDropReasonIsInterfaceDown(packetDropped)
attr title "packet drop: interface down, count"
scalar Lab661.router2.ppp[0].ppp packetDropInterfaceDown:sum(packetBytes) 0
attr interpolationmode none
attr recordingmode sum(packetBytes)
attr source packetDropReasonIsInterfaceDown(packetDropped)
attr title "packet drop: interface down, sum(packetBytes)"
par Lab661.router2.ppp[0] typename "\"inet.linklayer.ppp.PppInterface\""
par Lab661.router2.ppp[0] displayStringTextFormat "\"%a (%i)\\n%m\""
par Lab661.router2.ppp[0] recordPcap false
par Lab661.router2.ppp[0] numPcapRecorders 0
par Lab661.router2.ppp[0] interfaceTableModule "\"Lab661.router2.interfaceTable\""
scalar Lab661.router2.ppp[0] packetDropInterfaceDown:count 0
attr interpolationmode none
attr recordingmode count
attr source packetDropReasonIsInterfaceDown(packetDropped)
attr title "packet drops: interface down, count"
scalar Lab661.router2.ppp[0] packetDropInterfaceDown:sum(packetBytes) 0
attr interpolationmode none
attr recordingmode sum(packetBytes)
attr source packetDropReasonIsInterfaceDown(packetDropped)
attr title "packet drops: interface down, sum(packetBytes)"
scalar Lab661.router2.ppp[0] packetDropNoCarrier:count 0
attr interpolationmode none
attr recordingmode count
attr source packetDropReasonIsNoCarrier(packetDropped)
attr title "packet drops: no carrier, count"
scalar Lab661.router2.ppp[0] packetDropNoCarrier:sum(packetBytes) 0
attr interpolationmode none
attr recordingmode sum(packetBytes)
attr source packetDropReasonIsNoCarrier(packetDropped)
attr title "packet drops: no carrier, sum(packetBytes)"
par Lab661.router2.ppp[1].phys$i.channel typename "\"ned.IdealChannel\""
par Lab661.router2.ppp[1].ppp.phys$o.channel typename "\"ned.IdealChannel\""
par Lab661.router2.ppp[1].ppp.upperLayerOut.channel typename "\"ned.IdealChannel\""
par Lab661.router2.ppp[1].upperLayerIn.channel typename "\"ned.IdealChannel\""
par Lab661.router2.ppp[1].queue.in.channel typename "\"ned.IdealChannel\""
par Lab661.router2.ppp[1].queue.fifo.out.channel typename "\"ned.IdealChannel\""
par Lab661.router2.ppp[1].queue.red typename "\"inet.queueing.filter.RedDropper\""
par Lab661.router2.ppp[1].queue.red displayStringTextFormat "\"dropped %d/%p pk (%k/%l)\""
par Lab661.router2.ppp[1].queue.red backpressure false
par Lab661.router2.ppp[1].queue.red collectionModule "\"\""
par Lab661.router2.ppp[1].queue.red wq 0.002
par Lab661.router2.ppp[1].queue.red minth 0.833333
par Lab661.router2.ppp[1].queue.red maxth 2.5
par Lab661.router2.ppp[1].queue.red maxp 0.1
par Lab661.router2.ppp[1].queue.red pkrate 150
par Lab661.router2.ppp[1].queue.red useEcn false
par Lab661.router2.ppp[1].queue.red packetCapacity 5
scalar Lab661.router2.ppp[1].queue.red outgoingPackets:count 2666
attr recordingmode count
attr source "merge(packetPushedOut, packetPulledOut)"
attr title "outgoing packets, count"
attr unit pk
scalar Lab661.router2.ppp[1].queue.red outgoingPacketLengths:sum 853184
attr interpolationmode none
attr recordingmode sum
attr source "packetLength(merge(packetPushedOut, packetPulledOut))"
attr title "outgoing packet lengths, sum"
attr unit b
statistic Lab661.router2.ppp[1].queue.red outgoingPacketLengths:histogram
field count 2666
field mean 320.0240060015
field stddev 0.87630120154703
field min 320
field max 352
field sum 853184
field sqrsum 273041408
attr interpolationmode none
attr recordingmode histogram
attr source "packetLength(merge(packetPushedOut, packetPulledOut))"
attr title "outgoing packet lengths"
attr unit b
bin	-inf	0
bin	312	0
bin	313	0
bin	314	0
bin	315	0
bin	316	0
bin	317	0
bin	318	0
bin	319	0
bin	320	2664
bin	321	0
bin	322	0
bin	323	0
bin	324	0
bin	325	0
bin	326	0
bin	327	0
bin	328	0
bin	329	0
bin	330	0
bin	331	0
bin	332	0
bin	333	0
bin	334	0
bin	335	0
bin	336	0
bin	337	0
bin	338	0
bin	339	0
bin	340	0
bin	341	0
bin	342	0
bin	343	0
bin	344	0
bin	345	0
bin	346	0
bin	347	0
bin	348	0
bin	349	0
bin	350	0
bin	351	0
bin	352	2
bin	353	0
bin	354	0
bin	355	0
bin	356	0
bin	357	0
bin	358	0
bin	359	0
bin	360	0
scalar Lab661.router2.ppp[1].queue.red flowOutgoingPacketLengths:sum 0
attr interpolationmode none
attr recordingmode sum
attr source "packetLength(demuxFlow(merge(packetPushedOut, packetPulledOut)))"
attr title "flow specific outgoing packet lengths, sum"
attr unit b
statistic Lab661.router2.ppp[1].queue.red flowOutgoingPacketLengths:histogram
field count 0
field mean -nan
field stddev nan
field min nan
field max nan
field sum 0
field sqrsum 0
attr interpolationmode none
attr recordingmode histogram
attr source "packetLength(demuxFlow(merge(packetPushedOut, packetPulledOut)))"
attr title "flow specific outgoing packet lengths"
attr unit b
bin	-inf	0
bin	0	0
bin	1	0
scalar Lab661.router2.ppp[1].queue.red incomingPackets:count 2666
attr recordingmode count
attr source "merge(packetPushedIn, packetPulledIn)"
attr title "incoming packets, count"
attr unit pk
scalar Lab661.router2.ppp[1].queue.red incomingPacketLengths:sum 853184
attr interpolationmode none
attr recordingmode sum
attr source "packetLength(merge(packetPushedIn, packetPulledIn))"
attr title "incoming packet lengths, sum"
attr unit b
statistic Lab661.router2.ppp[1].queue.red incomingPacketLengths:histogram
field count 2666
field mean 320.0240060015
field stddev 0.87630120154703
field min 320
field max 352
field sum 853184
field sqrsum 273041408
attr interpolationmode none
attr recordingmode histogram
attr source "packetLength(merge(packetPushedIn, packetPulledIn))"
attr title "incoming packet lengths"
attr unit b
bin	-inf	0
bin	312	0
bin	313	0
bin	314	0
bin	315	0
bin	316	0
bin	317	0
bin	318	0
bin	319	0
bin	320	2664
bin	321	0
bin	322	0
bin	323	0
bin	324	0
bin	325	0
bin	326	0
bin	327	0
bin	328	0
bin	329	0
bin	330	0
bin	331	0
bin	332	0
bin	333	0
bin	334	0
bin	335	0
bin	336	0
bin	337	0
bin	338	0
bin	339	0
bin	340	0
bin	341	0
bin	342	0
bin	343	0
bin	344	0
bin	345	0
bin	346	0
bin	347	0
bin	348	0
bin	349	0
bin	350	0
bin	351	0
bin	352	2
bin	353	0
bin	354	0
bin	355	0
bin	356	0
bin	357	0
bin	358	0
bin	359	0
bin	360	0
scalar Lab661.router2.ppp[1].queue.red flowIncomingPacketLengths:sum 0
attr interpolationmode none
attr recordingmode sum
attr source "packetLength(demuxFlow(merge(packetPushedIn, packetPulledIn)))"
attr title "flow specific incoming packet lengths, sum"
attr unit b
statistic Lab661.router2.ppp[1].queue.red flowIncomingPacketLengths:histogram
field count 0
field mean -nan
field stddev nan
field min nan
field max nan
field sum 0
field sqrsum 0
attr interpolationmode none
attr recordingmode histogram
attr source "packetLength(demuxFlow(merge(packetPushedIn, packetPulledIn)))"
attr title "flow specific incoming packet lengths"
attr unit b
bin	-inf	0
bin	0	0
bin	1	0
scalar Lab661.router2.ppp[1].queue.red droppedPackets:count 0
attr recordingmode count
attr source packetDropped
attr title "dropped packets, count"
attr unit pk
scalar Lab661.router2.ppp[1].queue.red droppedPacketLengths:sum 0
attr interpolationmode none
attr recordingmode sum
attr source packetLength(packetDropped)
attr title "dropped packet lengths, sum"
attr unit b
statistic Lab661.router2.ppp[1].queue.red droppedPacketLengths:histogram
field count 0
field mean -nan
field stddev nan
field min nan
field max nan
field sum 0
field sqrsum 0
attr interpolationmode none
attr recordingmode histogram
attr source packetLength(packetDropped)
attr title "dropped packet lengths"
attr unit b
bin	-inf	0
bin	0	0
bin	1	0
scalar Lab661.router2.ppp[1].queue.red flowDroppedPacketLengths:sum 0
attr interpolationmode none
attr recordingmode sum
attr source packetLength(demuxFlow(packetDropped))
attr title "flow specific dropped packet lengths, sum"
attr unit b
statistic Lab661.router2.ppp[1].queue.red flowDroppedPacketLengths:histogram
field count 0
field mean -nan
field stddev nan
field min nan
field max nan
field sum 0
field sqrsum 0
attr interpolationmode none
attr recordingmode histogram
attr source packetLength(demuxFlow(packetDropped))
attr title "flow specific dropped packet lengths"
attr unit b
bin	-inf	0
bin	0	0
bin	1	0
scalar Lab661.router2.ppp[1].queue.red packetDropCongestion:count 0
attr interpolationmode none
attr recordingmode count
attr source packetDropReasonIsCongestion(packetDropped)
attr title "packet drop: congestion, count"
scalar Lab661.router2.ppp[1].queue.red packetDropCongestion:sum(packetBytes) 0
attr interpolationmode none
attr recordingmode sum(packetBytes)
attr source packetDropReasonIsCongestion(packetDropped)
attr title "packet drop: congestion, sum(packetBytes)"
par Lab661.router2.ppp[1].queue.fifo typename "\"inet.queueing.queue.PacketQueue\""
par Lab661.router2.ppp[1].queue.fifo displayStringTextFormat "\"contains %p pk (%l) pushed %u\\npulled %o removed %r dropped %d\""
par Lab661.router2.ppp[1].queue.fifo packetCapacity -1
par Lab661.router2.ppp[1].queue.fifo dataCapacity -1b
attr unit b
par Lab661.router2.ppp[1].queue.fifo dropperClass "\"\""
par Lab661.router2.ppp[1].queue.fifo comparatorClass "\"\""
par Lab661.router2.ppp[1].queue.fifo bufferModule "\"\""
scalar Lab661.router2.ppp[1].queue.fifo queueLength:last 0
attr autoWarmupFilter false
attr interpolationmode sample-hold
attr recordingmode last
attr source "warmup(atomic(constant0(packetPushEnded) + count(packetPushStarted) - count(packetPulled) - count(packetRemoved) - count(packetDropped)))"
attr title "queue length, last"
attr unit pk
scalar Lab661.router2.ppp[1].queue.fifo queueLength:max 0
attr autoWarmupFilter false
attr interpolationmode sample-hold
attr recordingmode max
attr source "warmup(atomic(constant0(packetPushEnded) + count(packetPushStarted) - count(packetPulled) - count(packetRemoved) - count(packetDropped)))"
attr title "queue length, max"
attr unit pk
scalar Lab661.router2.ppp[1].queue.fifo queueLength:timeavg 0
attr autoWarmupFilter false
attr interpolationmode sample-hold
attr recordingmode timeavg
attr source "warmup(atomic(constant0(packetPushEnded) + count(packetPushStarted) - count(packetPulled) - count(packetRemoved) - count(packetDropped)))"
attr title "queue length, timeavg"
attr unit pk
scalar Lab661.router2.ppp[1].queue.fifo queueBitLength:last 0
attr autoWarmupFilter false
attr interpolationmode sample-hold
attr recordingmode last
attr source "warmup(atomic(constant0(packetPushEnded) + sum(packetLength(packetPushStarted)) - sum(packetLength(packetPulled)) - sum(packetLength(packetRemoved)) - sum(packetLength(packetDropped))))"
attr title "queue bit length, last"
attr unit b
scalar Lab661.router2.ppp[1].queue.fifo queueBitLength:max 0
attr autoWarmupFilter false
attr interpolationmode sample-hold
attr recordingmode max
attr source "warmup(atomic(constant0(packetPushEnded) + sum(packetLength(packetPushStarted)) - sum(packetLength(packetPulled)) - sum(packetLength(packetRemoved)) - sum(packetLength(packetDropped))))"
attr title "queue bit length, max"
attr unit b
scalar Lab661.router2.ppp[1].queue.fifo queueBitLength:timeavg 0
attr autoWarmupFilter false
attr interpolationmode sample-hold
attr recordingmode timeavg
attr source "warmup(atomic(constant0(packetPushEnded) + sum(packetLength(packetPushStarted)) - sum(packetLength(packetPulled)) - sum(packetLength(packetRemoved)) - sum(packetLength(packetDropped))))"
attr title "queue bit length, timeavg"
attr unit b
statistic Lab661.router2.ppp[1].queue.fifo queueingTime:histogram
field count 2666
field mean 0
field stddev 0
field min 0
field max 0
field sum 0
field sqrsum 0
attr interpolationmode none
attr recordingmode histogram
attr source queueingTime(packetPulled)
attr title "queueing times"
attr unit s
bin	-inf	0
bin	-0.5	0
bin	-0.48	0
bin	-0.46	0
bin	-0.44	0
bin	-0.42	0
bin	-0.4	0
bin	-0.38	0
bin	-0.36	0
bin	-0.34	0
bin	-0.32	0
bin	-0.3	0
bin	-0.28	0
bin	-0.26	0
bin	-0.24	0
bin	-0.22	0
bin	-0.2	0
bin	-0.18	0
bin	-0.16	0
bin	-0.14	0
bin	-0.12	0
bin	-0.1	0
bin	-0.08	0
bin	-0.06	0
bin	-0.04	0
bin	-0.02	0
bin	0	2666
bin	0.02	0
bin	0.04	0
bin	0.06	0
bin	0.08	0
bin	0.1	0
bin	0.12	0
bin	0.14	0
bin	0.16	0
bin	0.18	0
bin	0.2	0
bin	0.22	0
bin	0.24	0
bin	0.26	0
bin	0.28	0
bin	0.3	0
bin	0.32	0
bin	0.34	0
bin	0.36	0
bin	0.38	0
bin	0.4	0
bin	0.42	0
bin	0.44	0
bin	0.46	0
bin	0.48	0
bin	0.5	0
scalar Lab661.router2.ppp[1].queue.fifo outgoingPackets:count 2666
attr recordingmode count
attr source packetPulled
attr title "outgoing packets, count"
attr unit pk
scalar Lab661.router2.ppp[1].queue.fifo outgoingPacketLengths:sum 853184
attr interpolationmode none
attr recordingmode sum
attr source packetLength(packetPulled)
attr title "outgoing packet lengths, sum"
attr unit b
statistic Lab661.router2.ppp[1].queue.fifo outgoingPacketLengths:histogram
field count 2666
field mean 320.0240060015
field stddev 0.87630120154703
field min 320
field max 352
field sum 853184
field sqrsum 273041408
attr interpolationmode none
attr recordingmode histogram
attr source packetLength(packetPulled)
attr title "outgoing packet lengths"
attr unit b
bin	-inf	0
bin	312	0
bin	313	0
bin	314	0
bin	315	0
bin	316	0
bin	317	0
bin	318	0
bin	319	0
bin	320	2664
bin	321	0
bin	322	0
bin	323	0
bin	324	0
bin	325	0
bin	326	0
bin	327	0
bin	328	0
bin	329	0
bin	330	0
bin	331	0
bin	332	0
bin	333	0
bin	334	0
bin	335	0
bin	336	0
bin	337	0
bin	338	0
bin	339	0
bin	340	0
bin	341	0
bin	342	0
bin	343	0
bin	344	0
bin	345	0
bin	346	0
bin	347	0
bin	348	0
bin	349	0
bin	350	0
bin	351	0
bin	352	2
bin	353	0
bin	354	0
bin	355	0
bin	356	0
bin	357	0
bin	358	0
bin	359	0
bin	360	0
statistic Lab661.router2.ppp[1].queue.fifo flowQueueingTime:histogram
field count 0
field mean -nan
field stddev nan
field min nan
field max nan
field sum 0
field sqrsum 0
attr interpolationmode none
attr recordingmode histogram
attr source queueingTime(demuxFlow(packetPulled))
attr title "flow queueing times"
attr unit s
bin	-inf	0
bin	0	0
bin	1	0
scalar Lab661.router2.ppp[1].queue.fifo incomingPackets:count 2666
attr recordingmode count
attr source packetPushStarted
attr title "incoming packets, count"
attr unit pk
scalar Lab661.router2.ppp[1].queue.fifo incomingPacketLengths:sum 853184
attr interpolationmode none
attr recordingmode sum
attr source packetLength(packetPushStarted)
attr title "incoming packet lengths, sum"
attr unit b
statistic Lab661.router2.ppp[1].queue.fifo incomingPacketLengths:histogram
field count 2666
field mean 320.0240060015
field stddev 0.87630120154703
field min 320
field max 352
field sum 853184
field sqrsum 273041408
attr interpolationmode none
attr recordingmode histogram
attr source packetLength(packetPushStarted)
attr title "incoming packet lengths"
attr unit b
bin	-inf	0
bin	312	0
bin	313	0
bin	314	0
bin	315	0
bin	316	0
bin	317	0
bin	318	0
bin	319	0
bin	320	2664
bin	321	0
bin	322	0
bin	323	0
bin	324	0
bin	325	0
bin	326	0
bin	327	0
bin	328	0
bin	329	0
bin	330	0
bin	331	0
bin	332	0
bin	333	0
bin	334	0
bin	335	0
bin	336	0
bin	337	0
bin	338	0
bin	339	0
bin	340	0
bin	341	0
bin	342	0
bin	343	0
bin	344	0
bin	345	0
bin	346	0
bin	347	0
bin	348	0
bin	349	0
bin	350	0
bin	351	0
bin	352	2
bin	353	0
bin	354	0
bin	355	0
bin	356	0
bin	357	0
bin	358	0
bin	359	0
bin	360	0
scalar Lab661.router2.ppp[1].queue.fifo droppedPacketsQueueOverflow:count 0
attr interpolationmode none
attr recordingmode count
attr source packetDropReasonIsQueueOverflow(packetDropped)
attr title "dropped packets: queue overflow, count"
attr unit pk
scalar Lab661.router2.ppp[1].queue.fifo droppedPacketLengthsQueueOverflow:sum 0
attr interpolationmode none
attr recordingmode sum
attr source packetLength(packetDropReasonIsQueueOverflow(packetDropped))
attr title "dropped packet lengths: queue overflow, sum"
attr unit b
par Lab661.router2.ppp[1].queue typename "\"inet.queueing.queue.RedDropperQueue\""
par Lab661.router2.ppp[1].queue displayStringTextFormat "\"contains %p pk (%l) pushed %u created %c\\n pulled %o removed %r dropped %d\""
par Lab661.router2.ppp[1].queue packetCapacity 10000
par Lab661.router2.ppp[1].queue dataCapacity -1b
attr unit b
par Lab661.router2.ppp[1].queue dropperClass "\"\""
scalar Lab661.router2.ppp[1].queue queueLength:last -2666
attr autoWarmupFilter false
attr interpolationmode sample-hold
attr recordingmode last
attr source "warmup(atomic(constant0(localSignal(packetPushEnded)) + count(localSignal(packetPushStarted)) - count(localSignal(packetPulled)) - count(localSignal(packetRemoved)) - count(localSignal(packetDropped))))"
attr title "queue length, last"
attr unit pk
scalar Lab661.router2.ppp[1].queue queueLength:max 0
attr autoWarmupFilter false
attr interpolationmode sample-hold
attr recordingmode max
attr source "warmup(atomic(constant0(localSignal(packetPushEnded)) + count(localSignal(packetPushStarted)) - count(localSignal(packetPulled)) - count(localSignal(packetRemoved)) - count(localSignal(packetDropped))))"
attr title "queue length, max"
attr unit pk
scalar Lab661.router2.ppp[1].queue queueLength:timeavg -1159.9353088788
attr autoWarmupFilter false
attr interpolationmode sample-hold
attr recordingmode timeavg
attr source "warmup(atomic(constant0(localSignal(packetPushEnded)) + count(localSignal(packetPushStarted)) - count(localSignal(packetPulled)) - count(localSignal(packetRemoved)) - count(localSignal(packetDropped))))"
attr title "queue length, timeavg"
attr unit pk
scalar Lab661.router2.ppp[1].queue queueBitLength:last -853184
attr autoWarmupFilter false
attr interpolationmode sample-hold
attr recordingmode last
attr source "warmup(atomic(constant0(localSignal(packetPushEnded)) + sum(packetLength(localSignal(packetPushStarted))) - sum(packetLength(localSignal(packetPulled))) - sum(packetLength(localSignal(packetRemoved))) - sum(packetLength(localSignal(packetDropped)))))"
attr title "queue bit length, last"
attr unit b
scalar Lab661.router2.ppp[1].queue queueBitLength:max 0
attr autoWarmupFilter false
attr interpolationmode sample-hold
attr recordingmode max
attr source "warmup(atomic(constant0(localSignal(packetPushEnded)) + sum(packetLength(localSignal(packetPushStarted))) - sum(packetLength(localSignal(packetPulled))) - sum(packetLength(localSignal(packetRemoved))) - sum(packetLength(localSignal(packetDropped)))))"
attr title "queue bit length, max"
attr unit b
scalar Lab661.router2.ppp[1].queue queueBitLength:timeavg -371237.97215536
attr autoWarmupFilter false
attr interpolationmode sample-hold
attr recordingmode timeavg
attr source "warmup(atomic(constant0(localSignal(packetPushEnded)) + sum(packetLength(localSignal(packetPushStarted))) - sum(packetLength(localSignal(packetPulled))) - sum(packetLength(localSignal(packetRemoved))) - sum(packetLength(localSignal(packetDropped)))))"
attr title "queue bit length, timeavg"
attr unit b
statistic Lab661.router2.ppp[1].queue queueingTime:histogram
field count 2666
field mean 0
field stddev 0
field min 0
field max 0
field sum 0
field sqrsum 0
attr interpolationmode none
attr recordingmode histogram
attr source queueingTime(localSignal(packetPulled))
attr title "queueing times"
attr unit s
bin	-inf	0
bin	-0.5	0
bin	-0.48	0
bin	-0.46	0
bin	-0.44	0
bin	-0.42	0
bin	-0.4	0
bin	-0.38	0
bin	-0.36	0
bin	-0.34	0
bin	-0.32	0
bin	-0.3	0
bin	-0.28	0
bin	-0.26	0
bin	-0.24	0
bin	-0.22	0
bin	-0.2	0
bin	-0.18	0
bin	-0.16	0
bin	-0.14	0
bin	-0.12	0
bin	-0.1	0
bin	-0.08	0
bin	-0.06	0
bin	-0.04	0
bin	-0.02	0
bin	0	2666
bin	0.02	0
bin	0.04	0
bin	0.06	0
bin	0.08	0
bin	0.1	0
bin	0.12	0
bin	0.14	0
bin	0.16	0
bin	0.18	0
bin	0.2	0
bin	0.22	0
bin	0.24	0
bin	0.26	0
bin	0.28	0
bin	0.3	0
bin	0.32	0
bin	0.34	0
bin	0.36	0
bin	0.38	0
bin	0.4	0
bin	0.42	0
bin	0.44	0
bin	0.46	0
bin	0.48	0
bin	0.5	0
scalar Lab661.router2.ppp[1].queue outgoingPackets:count 2666
attr recordingmode count
attr source localSignal(packetPulled)
attr title "outgoing packets, count"
attr unit pk
scalar Lab661.router2.ppp[1].queue outgoingPacketLengths:sum 853184
attr interpolationmode none
attr recordingmode sum
attr source packetLength(localSignal(packetPulled))
attr title "outgoing packet lengths, sum"
attr unit b
statistic Lab661.router2.ppp[1].queue outgoingPacketLengths:histogram
field count 2666
field mean 320.0240060015
field stddev 0.87630120154703
field min 320
field max 352
field sum 853184
field sqrsum 273041408
attr interpolationmode none
attr recordingmode histogram
attr source packetLength(localSignal(packetPulled))
attr title "outgoing packet lengths"
attr unit b
bin	-inf	0
bin	312	0
bin	313	0
bin	314	0
bin	315	0
bin	316	0
bin	317	0
bin	318	0
bin	319	0
bin	320	2664
bin	321	0
bin	322	0
bin	323	0
bin	324	0
bin	325	0
bin	326	0
bin	327	0
bin	328	0
bin	329	0
bin	330	0
bin	331	0
bin	332	0
bin	333	0
bin	334	0
bin	335	0
bin	336	0
bin	337	0
bin	338	0
bin	339	0
bin	340	0
bin	341	0
bin	342	0
bin	343	0
bin	344	0
bin	345	0
bin	346	0
bin	347	0
bin	348	0
bin	349	0
bin	350	0
bin	351	0
bin	352	2
bin	353	0
bin	354	0
bin	355	0
bin	356	0
bin	357	0
bin	358	0
bin	359	0
bin	360	0
statistic Lab661.router2.ppp[1].queue flowQueueingTime:histogram
field count 0
field mean -nan
field stddev nan
field min nan
field max nan
field sum 0
field sqrsum 0
attr interpolationmode none
attr recordingmode histogram
attr source queueingTime(demuxFlow(localSignal(packetPulled)))
attr title "flow queueing times"
attr unit s
bin	-inf	0
bin	0	0
bin	1	0
scalar Lab661.router2.ppp[1].queue incomingPackets:count 0
attr recordingmode count
attr source localSignal(packetPushStarted)
attr title "incoming packets, count"
attr unit pk
scalar Lab661.router2.ppp[1].queue incomingPacketLengths:sum 0
attr interpolationmode none
attr recordingmode sum
attr source packetLength(localSignal(packetPushStarted))
attr title "incoming packet lengths, sum"
attr unit b
statistic Lab661.router2.ppp[1].queue incomingPacketLengths:histogram
field count 0
field mean -nan
field stddev nan
field min nan
field max nan
field sum 0
field sqrsum 0
attr interpolationmode none
attr recordingmode histogram
attr source packetLength(localSignal(packetPushStarted))
attr title "incoming packet lengths"
attr unit b
bin	-inf	0
bin	0	0
bin	1	0
scalar Lab661.router2.ppp[1].queue droppedPacketsQueueOverflow:count 0
attr interpolationmode none
attr recordingmode count
attr source packetDropReasonIsQueueOverflow(localSignal(packetDropped))
attr title "dropped packets: queue overflow, count"
attr unit pk
scalar Lab661.router2.ppp[1].queue droppedPacketLengthsQueueOverflow:sum 0
attr interpolationmode none
attr recordingmode sum
attr source packetLength(packetDropReasonIsQueueOverflow(localSignal(packetDropped)))
attr title "dropped packet lengths: queue overflow, sum"
attr unit b
par Lab661.router2.ppp[1].ppp typename "\"inet.linklayer.ppp.Ppp\""
par Lab661.router2.ppp[1].ppp interfaceTableModule "\"Lab661.router2.interfaceTable\""
par Lab661.router2.ppp[1].ppp displayStringTextFormat "\"rate: %b\\nsent: %s, rcvd: %r\\nqueue: %q, drop: %d\""
par Lab661.router2.ppp[1].ppp sendRawBytes false
par Lab661.router2.ppp[1].ppp mtu 4470B
attr unit B
par Lab661.router2.ppp[1].ppp stopOperationExtraTime -1s
attr unit s
par Lab661.router2.ppp[1].ppp stopOperationTimeout 2s
attr unit s
scalar Lab661.router2.ppp[1].ppp transmissionState:timeavg 0.020049600000001
attr interpolationmode sample-hold
attr recordingmode timeavg
attr source transmissionStateChanged
attr title "tx state, timeavg"
scalar Lab661.router2.ppp[1].ppp rxPkOk:count 2676
attr interpolationmode none
attr recordingmode count
attr source rxPkOk
attr title "packets received OK, count"
scalar Lab661.router2.ppp[1].ppp rxPkOk:sum(packetBytes) 4026900
attr interpolationmode none
attr recordingmode sum(packetBytes)
attr source rxPkOk
attr title "packets received OK, sum(packetBytes)"
scalar Lab661.router2.ppp[1].ppp txPk:count 2666
attr interpolationmode none
attr recordingmode count
attr source packetSentToLower
attr title "packets transmitted, count"
scalar Lab661.router2.ppp[1].ppp txPk:sum(packetBytes) 125310
attr interpolationmode none
attr recordingmode sum(packetBytes)
attr source packetSentToLower
attr title "packets transmitted, sum(packetBytes)"
scalar Lab661.router2.ppp[1].ppp rcvdPkFromHl:count 2666
attr interpolationmode none
attr recordingmode count
attr source packetReceivedFromUpper
attr title "packets received from higher layer, count"
scalar Lab661.router2.ppp[1].ppp rcvdPkFromHl:sum(packetBytes) 106648
attr interpolationmode none
attr recordingmode sum(packetBytes)
attr source packetReceivedFromUpper
attr title "packets received from higher layer, sum(packetBytes)"
scalar Lab661.router2.ppp[1].ppp passedUpPk:count 2676
attr interpolationmode none
attr recordingmode count
attr source packetSentToUpper
attr title "packets passed to higher layer, count"
scalar Lab661.router2.ppp[1].ppp passedUpPk:sum(packetBytes) 4008168
attr interpolationmode none
attr recordingmode sum(packetBytes)
attr source packetSentToUpper
attr title "packets passed to higher layer, sum(packetBytes)"
scalar Lab661.router2.ppp[1].ppp packetDropIncorrectlyReceived:count 0
attr interpolationmode none
attr recordingmode count
attr source packetDropReasonIsIncorrectlyReceived(packetDropped)
attr title "packet drop: incorrectly received, count"
scalar Lab661.router2.ppp[1].ppp packetDropIncorrectlyReceived:sum(packetBytes) 0
attr interpolationmode none
attr recordingmode sum(packetBytes)
attr source packetDropReasonIsIncorrectlyReceived(packetDropped)
attr title "packet drop: incorrectly received, sum(packetBytes)"
scalar Lab661.router2.ppp[1].ppp packetDropInterfaceDown:count 0
attr interpolationmode none
attr recordingmode count
attr source packetDropReasonIsInterfaceDown(packetDropped)
attr title "packet drop: interface down, count"
scalar Lab661.router2.ppp[1].ppp packetDropInterfaceDown:sum(packetBytes) 0
attr interpolationmode none
attr recordingmode sum(packetBytes)
attr source packetDropReasonIsInterfaceDown(packetDropped)
attr title "packet drop: interface down, sum(packetBytes)"
par Lab661.router2.ppp[1] typename "\"inet.linklayer.ppp.PppInterface\""
par Lab661.router2.ppp[1] displayStringTextFormat "\"%a (%i)\\n%m\""
par Lab661.router2.ppp[1] recordPcap false
par Lab661.router2.ppp[1] numPcapRecorders 0
par Lab661.router2.ppp[1] interfaceTableModule "\"Lab661.router2.interfaceTable\""
scalar Lab661.router2.ppp[1] packetDropInterfaceDown:count 0
attr interpolationmode none
attr recordingmode count
attr source packetDropReasonIsInterfaceDown(packetDropped)
attr title "packet drops: interface down, count"
scalar Lab661.router2.ppp[1] packetDropInterfaceDown:sum(packetBytes) 0
attr interpolationmode none
attr recordingmode sum(packetBytes)
attr source packetDropReasonIsInterfaceDown(packetDropped)
attr title "packet drops: interface down, sum(packetBytes)"
scalar Lab661.router2.ppp[1] packetDropNoCarrier:count 0
attr interpolationmode none
attr recordingmode count
attr source packetDropReasonIsNoCarrier(packetDropped)
attr title "packet drops: no carrier, count"
scalar Lab661.router2.ppp[1] packetDropNoCarrier:sum(packetBytes) 0
attr interpolationmode none
attr recordingmode sum(packetBytes)
attr source packetDropReasonIsNoCarrier(packetDropped)
attr title "packet drops: no carrier, sum(packetBytes)"
par Lab661.router2.ppp[2].phys$i.channel typename "\"ned.IdealChannel\""
par Lab661.router2.ppp[2].ppp.phys$o.channel typename "\"ned.IdealChannel\""
par Lab661.router2.ppp[2].ppp.upperLayerOut.channel typename "\"ned.IdealChannel\""
par Lab661.router2.ppp[2].upperLayerIn.channel typename "\"ned.IdealChannel\""
par Lab661.router2.ppp[2].queue.in.channel typename "\"ned.IdealChannel\""
par Lab661.router2.ppp[2].queue.fifo.out.channel typename "\"ned.IdealChannel\""
par Lab661.router2.ppp[2].queue.red typename "\"inet.queueing.filter.RedDropper\""
par Lab661.router2.ppp[2].queue.red displayStringTextFormat "\"dropped %d/%p pk (%k/%l)\""
par Lab661.router2.ppp[2].queue.red backpressure false
par Lab661.router2.ppp[2].queue.red collectionModule "\"\""
par Lab661.router2.ppp[2].queue.red wq 0.002
par Lab661.router2.ppp[2].queue.red minth 0.833333
par Lab661.router2.ppp[2].queue.red maxth 2.5
par Lab661.router2.ppp[2].queue.red maxp 0.1
par Lab661.router2.ppp[2].queue.red pkrate 150
par Lab661.router2.ppp[2].queue.red useEcn false
par Lab661.router2.ppp[2].queue.red packetCapacity 5
scalar Lab661.router2.ppp[2].queue.red outgoingPackets:count 2676
attr recordingmode count
attr source "merge(packetPushedOut, packetPulledOut)"
attr title "outgoing packets, count"
attr unit pk
scalar Lab661.router2.ppp[2].queue.red outgoingPacketLengths:sum 32065344
attr interpolationmode none
attr recordingmode sum
attr source "packetLength(merge(packetPushedOut, packetPulledOut))"
attr title "outgoing packet lengths, sum"
attr unit b
statistic Lab661.router2.ppp[2].queue.red outgoingPacketLengths:histogram
field count 2676
field mean 11982.565022422
field stddev 450.7037743564
field min 320
field max 12000
field sum 32065344
field sqrsum 384768452608
attr interpolationmode none
attr recordingmode histogram
attr source "packetLength(merge(packetPushedOut, packetPulledOut))"
attr title "outgoing packet lengths"
attr unit b
bin	-inf	0
bin	0	0
bin	200	4
bin	400	0
bin	600	0
bin	800	0
bin	1000	0
bin	1200	0
bin	1400	0
bin	1600	0
bin	1800	0
bin	2000	0
bin	2200	0
bin	2400	0
bin	2600	0
bin	2800	0
bin	3000	0
bin	3200	0
bin	3400	0
bin	3600	0
bin	3800	0
bin	4000	0
bin	4200	0
bin	4400	0
bin	4600	0
bin	4800	0
bin	5000	0
bin	5200	0
bin	5400	0
bin	5600	0
bin	5800	0
bin	6000	0
bin	6200	0
bin	6400	0
bin	6600	0
bin	6800	0
bin	7000	0
bin	7200	0
bin	7400	0
bin	7600	0
bin	7800	0
bin	8000	0
bin	8200	0
bin	8400	0
bin	8600	0
bin	8800	0
bin	9000	0
bin	9200	0
bin	9400	0
bin	9600	0
bin	9800	0
bin	10000	0
bin	10200	0
bin	10400	0
bin	10600	0
bin	10800	0
bin	11000	0
bin	11200	0
bin	11400	0
bin	11600	0
bin	11800	0
bin	12000	2672
bin	12200	0
bin	12400	0
bin	12600	0
bin	12800	0
bin	13000	0
bin	13200	0
bin	13400	0
bin	13600	0
bin	13800	0
bin	14000	0
bin	14200	0
bin	14400	0
bin	14600	0
bin	14800	0
bin	15000	0
scalar Lab661.router2.ppp[2].queue.red flowOutgoingPacketLengths:sum 0
attr interpolationmode none
attr recordingmode sum
attr source "packetLength(demuxFlow(merge(packetPushedOut, packetPulledOut)))"
attr title "flow specific outgoing packet lengths, sum"
attr unit b
statistic Lab661.router2.ppp[2].queue.red flowOutgoingPacketLengths:histogram
field count 0
field mean -nan
field stddev nan
field min nan
field max nan
field sum 0
field sqrsum 0
attr interpolationmode none
attr recordingmode histogram
attr source "packetLength(demuxFlow(merge(packetPushedOut, packetPulledOut)))"
attr title "flow specific outgoing packet lengths"
attr unit b
bin	-inf	0
bin	0	0
bin	1	0
scalar Lab661.router2.ppp[2].queue.red incomingPackets:count 2676
attr recordingmode count
attr source "merge(packetPushedIn, packetPulledIn)"
attr title "incoming packets, count"
attr unit pk
scalar Lab661.router2.ppp[2].queue.red incomingPacketLengths:sum 32065344
attr interpolationmode none
attr recordingmode sum
attr source "packetLength(merge(packetPushedIn, packetPulledIn))"
attr title "incoming packet lengths, sum"
attr unit b
statistic Lab661.router2.ppp[2].queue.red incomingPacketLengths:histogram
field count 2676
field mean 11982.565022422
field stddev 450.7037743564
field min 320
field max 12000
field sum 32065344
field sqrsum 384768452608
attr interpolationmode none
attr recordingmode histogram
attr source "packetLength(merge(packetPushedIn, packetPulledIn))"
attr title "incoming packet lengths"
attr unit b
bin	-inf	0
bin	0	0
bin	200	4
bin	400	0
bin	600	0
bin	800	0
bin	1000	0
bin	1200	0
bin	1400	0
bin	1600	0
bin	1800	0
bin	2000	0
bin	2200	0
bin	2400	0
bin	2600	0
bin	2800	0
bin	3000	0
bin	3200	0
bin	3400	0
bin	3600	0
bin	3800	0
bin	4000	0
bin	4200	0
bin	4400	0
bin	4600	0
bin	4800	0
bin	5000	0
bin	5200	0
bin	5400	0
bin	5600	0
bin	5800	0
bin	6000	0
bin	6200	0
bin	6400	0
bin	6600	0
bin	6800	0
bin	7000	0
bin	7200	0
bin	7400	0
bin	7600	0
bin	7800	0
bin	8000	0
bin	8200	0
bin	8400	0
bin	8600	0
bin	8800	0
bin	9000	0
bin	9200	0
bin	9400	0
bin	9600	0
bin	9800	0
bin	10000	0
bin	10200	0
bin	10400	0
bin	10600	0
bin	10800	0
bin	11000	0
bin	11200	0
bin	11400	0
bin	11600	0
bin	11800	0
bin	12000	2672
bin	12200	0
bin	12400	0
bin	12600	0
bin	12800	0
bin	13000	0
bin	13200	0
bin	13400	0
bin	13600	0
bin	13800	0
bin	14000	0
bin	14200	0
bin	14400	0
bin	14600	0
bin	14800	0
bin	15000	0
scalar Lab661.router2.ppp[2].queue.red flowIncomingPacketLengths:sum 0
attr interpolationmode none
attr recordingmode sum
attr source "packetLength(demuxFlow(merge(packetPushedIn, packetPulledIn)))"
attr title "flow specific incoming packet lengths, sum"
attr unit b
statistic Lab661.router2.ppp[2].queue.red flowIncomingPacketLengths:histogram
field count 0
field mean -nan
field stddev nan
field min nan
field max nan
field sum 0
field sqrsum 0
attr interpolationmode none
attr recordingmode histogram
attr source "packetLength(demuxFlow(merge(packetPushedIn, packetPulledIn)))"
attr title "flow specific incoming packet lengths"
attr unit b
bin	-inf	0
bin	0	0
bin	1	0
scalar Lab661.router2.ppp[2].queue.red droppedPackets:count 0
attr recordingmode count
attr source packetDropped
attr title "dropped packets, count"
attr unit pk
scalar Lab661.router2.ppp[2].queue.red droppedPacketLengths:sum 0
attr interpolationmode none
attr recordingmode sum
attr source packetLength(packetDropped)
attr title "dropped packet lengths, sum"
attr unit b
statistic Lab661.router2.ppp[2].queue.red droppedPacketLengths:histogram
field count 0
field mean -nan
field stddev nan
field min nan
field max nan
field sum 0
field sqrsum 0
attr interpolationmode none
attr recordingmode histogram
attr source packetLength(packetDropped)
attr title "dropped packet lengths"
attr unit b
bin	-inf	0
bin	0	0
bin	1	0
scalar Lab661.router2.ppp[2].queue.red flowDroppedPacketLengths:sum 0
attr interpolationmode none
attr recordingmode sum
attr source packetLength(demuxFlow(packetDropped))
attr title "flow specific dropped packet lengths, sum"
attr unit b
statistic Lab661.router2.ppp[2].queue.red flowDroppedPacketLengths:histogram
field count 0
field mean -nan
field stddev nan
field min nan
field max nan
field sum 0
field sqrsum 0
attr interpolationmode none
attr recordingmode histogram
attr source packetLength(demuxFlow(packetDropped))
attr title "flow specific dropped packet lengths"
attr unit b
bin	-inf	0
bin	0	0
bin	1	0
scalar Lab661.router2.ppp[2].queue.red packetDropCongestion:count 0
attr interpolationmode none
attr recordingmode count
attr source packetDropReasonIsCongestion(packetDropped)
attr title "packet drop: congestion, count"
scalar Lab661.router2.ppp[2].queue.red packetDropCongestion:sum(packetBytes) 0
attr interpolationmode none
attr recordingmode sum(packetBytes)
attr source packetDropReasonIsCongestion(packetDropped)
attr title "packet drop: congestion, sum(packetBytes)"
par Lab661.router2.ppp[2].queue.fifo typename "\"inet.queueing.queue.PacketQueue\""
par Lab661.router2.ppp[2].queue.fifo displayStringTextFormat "\"contains %p pk (%l) pushed %u\\npulled %o removed %r dropped %d\""
par Lab661.router2.ppp[2].queue.fifo packetCapacity -1
par Lab661.router2.ppp[2].queue.fifo dataCapacity -1b
attr unit b
par Lab661.router2.ppp[2].queue.fifo dropperClass "\"\""
par Lab661.router2.ppp[2].queue.fifo comparatorClass "\"\""
par Lab661.router2.ppp[2].queue.fifo bufferModule "\"\""
scalar Lab661.router2.ppp[2].queue.fifo queueLength:last 0
attr autoWarmupFilter false
attr interpolationmode sample-hold
attr recordingmode last
attr source "warmup(atomic(constant0(packetPushEnded) + count(packetPushStarted) - count(packetPulled) - count(packetRemoved) - count(packetDropped)))"
attr title "queue length, last"
attr unit pk
scalar Lab661.router2.ppp[2].queue.fifo queueLength:max 0
attr autoWarmupFilter false
attr interpolationmode sample-hold
attr recordingmode max
attr source "warmup(atomic(constant0(packetPushEnded) + count(packetPushStarted) - count(packetPulled) - count(packetRemoved) - count(packetDropped)))"
attr title "queue length, max"
attr unit pk
scalar Lab661.router2.ppp[2].queue.fifo queueLength:timeavg 0
attr autoWarmupFilter false
attr interpolationmode sample-hold
attr recordingmode timeavg
attr source "warmup(atomic(constant0(packetPushEnded) + count(packetPushStarted) - count(packetPulled) - count(packetRemoved) - count(packetDropped)))"
attr title "queue length, timeavg"
attr unit pk
scalar Lab661.router2.ppp[2].queue.fifo queueBitLength:last 0
attr autoWarmupFilter false
attr interpolationmode sample-hold
attr recordingmode last
attr source "warmup(atomic(constant0(packetPushEnded) + sum(packetLength(packetPushStarted)) - sum(packetLength(packetPulled)) - sum(packetLength(packetRemoved)) - sum(packetLength(packetDropped))))"
attr title "queue bit length, last"
attr unit b
scalar Lab661.router2.ppp[2].queue.fifo queueBitLength:max 0
attr autoWarmupFilter false
attr interpolationmode sample-hold
attr recordingmode max
attr source "warmup(atomic(constant0(packetPushEnded) + sum(packetLength(packetPushStarted)) - sum(packetLength(packetPulled)) - sum(packetLength(packetRemoved)) - sum(packetLength(packetDropped))))"
attr title "queue bit length, max"
attr unit b
scalar Lab661.router2.ppp[2].queue.fifo queueBitLength:timeavg 0
attr autoWarmupFilter false
attr interpolationmode sample-hold
attr recordingmode timeavg
attr source "warmup(atomic(constant0(packetPushEnded) + sum(packetLength(packetPushStarted)) - sum(packetLength(packetPulled)) - sum(packetLength(packetRemoved)) - sum(packetLength(packetDropped))))"
attr title "queue bit length, timeavg"
attr unit b
statistic Lab661.router2.ppp[2].queue.fifo queueingTime:histogram
field count 2676
field mean 0
field stddev 0
field min 0
field max 0
field sum 0
field sqrsum 0
attr interpolationmode none
attr recordingmode histogram
attr source queueingTime(packetPulled)
attr title "queueing times"
attr unit s
bin	-inf	0
bin	-0.5	0
bin	-0.48	0
bin	-0.46	0
bin	-0.44	0
bin	-0.42	0
bin	-0.4	0
bin	-0.38	0
bin	-0.36	0
bin	-0.34	0
bin	-0.32	0
bin	-0.3	0
bin	-0.28	0
bin	-0.26	0
bin	-0.24	0
bin	-0.22	0
bin	-0.2	0
bin	-0.18	0
bin	-0.16	0
bin	-0.14	0
bin	-0.12	0
bin	-0.1	0
bin	-0.08	0
bin	-0.06	0
bin	-0.04	0
bin	-0.02	0
bin	0	2676
bin	0.02	0
bin	0.04	0
bin	0.06	0
bin	0.08	0
bin	0.1	0
bin	0.12	0
bin	0.14	0
bin	0.16	0
bin	0.18	0
bin	0.2	0
bin	0.22	0
bin	0.24	0
bin	0.26	0
bin	0.28	0
bin	0.3	0
bin	0.32	0
bin	0.34	0
bin	0.36	0
bin	0.38	0
bin	0.4	0
bin	0.42	0
bin	0.44	0
bin	0.46	0
bin	0.48	0
bin	0.5	0
scalar Lab661.router2.ppp[2].queue.fifo outgoingPackets:count 2676
attr recordingmode count
attr source packetPulled
attr title "outgoing packets, count"
attr unit pk
scalar Lab661.router2.ppp[2].queue.fifo outgoingPacketLengths:sum 32065344
attr interpolationmode none
attr recordingmode sum
attr source packetLength(packetPulled)
attr title "outgoing packet lengths, sum"
attr unit b
statistic Lab661.router2.ppp[2].queue.fifo outgoingPacketLengths:histogram
field count 2676
field mean 11982.565022422
field stddev 450.7037743564
field min 320
field max 12000
field sum 32065344
field sqrsum 384768452608
attr interpolationmode none
attr recordingmode histogram
attr source packetLength(packetPulled)
attr title "outgoing packet lengths"
attr unit b
bin	-inf	0
bin	0	0
bin	200	4
bin	400	0
bin	600	0
bin	800	0
bin	1000	0
bin	1200	0
bin	1400	0
bin	1600	0
bin	1800	0
bin	2000	0
bin	2200	0
bin	2400	0
bin	2600	0
bin	2800	0
bin	3000	0
bin	3200	0
bin	3400	0
bin	3600	0
bin	3800	0
bin	4000	0
bin	4200	0
bin	4400	0
bin	4600	0
bin	4800	0
bin	5000	0
bin	5200	0
bin	5400	0
bin	5600	0
bin	5800	0
bin	6000	0
bin	6200	0
bin	6400	0
bin	6600	0
bin	6800	0
bin	7000	0
bin	7200	0
bin	7400	0
bin	7600	0
bin	7800	0
bin	8000	0
bin	8200	0
bin	8400	0
bin	8600	0
bin	8800	0
bin	9000	0
bin	9200	0
bin	9400	0
bin	9600	0
bin	9800	0
bin	10000	0
bin	10200	0
bin	10400	0
bin	10600	0
bin	10800	0
bin	11000	0
bin	11200	0
bin	11400	0
bin	11600	0
bin	11800	0
bin	12000	2672
bin	12200	0
bin	12400	0
bin	12600	0
bin	12800	0
bin	13000	0
bin	13200	0
bin	13400	0
bin	13600	0
bin	13800	0
bin	14000	0
bin	14200	0
bin	14400	0
bin	14600	0
bin	14800	0
bin	15000	0
statistic Lab661.router2.ppp[2].queue.fifo flowQueueingTime:histogram
field count 0
field mean -nan
field stddev nan
field min nan
field max nan
field sum 0
field sqrsum 0
attr interpolationmode none
attr recordingmode histogram
attr source queueingTime(demuxFlow(packetPulled))
attr title "flow queueing times"
attr unit s
bin	-inf	0
bin	0	0
bin	1	0
scalar Lab661.router2.ppp[2].queue.fifo incomingPackets:count 2676
attr recordingmode count
attr source packetPushStarted
attr title "incoming packets, count"
attr unit pk
scalar Lab661.router2.ppp[2].queue.fifo incomingPacketLengths:sum 32065344
attr interpolationmode none
attr recordingmode sum
attr source packetLength(packetPushStarted)
attr title "incoming packet lengths, sum"
attr unit b
statistic Lab661.router2.ppp[2].queue.fifo incomingPacketLengths:histogram
field count 2676
field mean 11982.565022422
field stddev 450.7037743564
field min 320
field max 12000
field sum 32065344
field sqrsum 384768452608
attr interpolationmode none
attr recordingmode histogram
attr source packetLength(packetPushStarted)
attr title "incoming packet lengths"
attr unit b
bin	-inf	0
bin	0	0
bin	200	4
bin	400	0
bin	600	0
bin	800	0
bin	1000	0
bin	1200	0
bin	1400	0
bin	1600	0
bin	1800	0
bin	2000	0
bin	2200	0
bin	2400	0
bin	2600	0
bin	2800	0
bin	3000	0
bin	3200	0
bin	3400	0
bin	3600	0
bin	3800	0
bin	4000	0
bin	4200	0
bin	4400	0
bin	4600	0
bin	4800	0
bin	5000	0
bin	5200	0
bin	5400	0
bin	5600	0
bin	5800	0
bin	6000	0
bin	6200	0
bin	6400	0
bin	6600	0
bin	6800	0
bin	7000	0
bin	7200	0
bin	7400	0
bin	7600	0
bin	7800	0
bin	8000	0
bin	8200	0
bin	8400	0
bin	8600	0
bin	8800	0
bin	9000	0
bin	9200	0
bin	9400	0
bin	9600	0
bin	9800	0
bin	10000	0
bin	10200	0
bin	10400	0
bin	10600	0
bin	10800	0
bin	11000	0
bin	11200	0
bin	11400	0
bin	11600	0
bin	11800	0
bin	12000	2672
bin	12200	0
bin	12400	0
bin	12600	0
bin	12800	0
bin	13000	0
bin	13200	0
bin	13400	0
bin	13600	0
bin	13800	0
bin	14000	0
bin	14200	0
bin	14400	0
bin	14600	0
bin	14800	0
bin	15000	0
scalar Lab661.router2.ppp[2].queue.fifo droppedPacketsQueueOverflow:count 0
attr interpolationmode none
attr recordingmode count
attr source packetDropReasonIsQueueOverflow(packetDropped)
attr title "dropped packets: queue overflow, count"
attr unit pk
scalar Lab661.router2.ppp[2].queue.fifo droppedPacketLengthsQueueOverflow:sum 0
attr interpolationmode none
attr recordingmode sum
attr source packetLength(packetDropReasonIsQueueOverflow(packetDropped))
attr title "dropped packet lengths: queue overflow, sum"
attr unit b
par Lab661.router2.ppp[2].queue typename "\"inet.queueing.queue.RedDropperQueue\""
par Lab661.router2.ppp[2].queue displayStringTextFormat "\"contains %p pk (%l) pushed %u created %c\\n pulled %o removed %r dropped %d\""
par Lab661.router2.ppp[2].queue packetCapacity 10000
par Lab661.router2.ppp[2].queue dataCapacity -1b
attr unit b
par Lab661.router2.ppp[2].queue dropperClass "\"\""
scalar Lab661.router2.ppp[2].queue queueLength:last -2676
attr autoWarmupFilter false
attr interpolationmode sample-hold
attr recordingmode last
attr source "warmup(atomic(constant0(localSignal(packetPushEnded)) + count(localSignal(packetPushStarted)) - count(localSignal(packetPulled)) - count(localSignal(packetRemoved)) - count(localSignal(packetDropped))))"
attr title "queue length, last"
attr unit pk
scalar Lab661.router2.ppp[2].queue queueLength:max 0
attr autoWarmupFilter false
attr interpolationmode sample-hold
attr recordingmode max
attr source "warmup(atomic(constant0(localSignal(packetPushEnded)) + count(localSignal(packetPushStarted)) - count(localSignal(packetPulled)) - count(localSignal(packetRemoved)) - count(localSignal(packetDropped))))"
attr title "queue length, max"
attr unit pk
scalar Lab661.router2.ppp[2].queue queueLength:timeavg -1166.6977327849
attr autoWarmupFilter false
attr interpolationmode sample-hold
attr recordingmode timeavg
attr source "warmup(atomic(constant0(localSignal(packetPushEnded)) + count(localSignal(packetPushStarted)) - count(localSignal(packetPulled)) - count(localSignal(packetRemoved)) - count(localSignal(packetDropped))))"
[...]
attr unit s
par Lab661.receiver3.ipv4.icmp typename "\"inet.networklayer.ipv4.Icmp\""
par Lab661.receiver3.ipv4.icmp interfaceTableModule "\"Lab661.receiver3.interfaceTable\""
par Lab661.receiver3.ipv4.icmp routingTableModule "\"Lab661.receiver3.ipv4.routingTable\""
par Lab661.receiver3.ipv4.icmp crcMode "\"declared\""
attr enum declared,computed
attr mutable ""
par Lab661.receiver3.ipv4.icmp quoteLength 8B
attr mutable ""
attr unit B
par Lab661.receiver3.ipv4.mp typename "\"inet.common.MessageDispatcher\""
par Lab661.receiver3.ipv4.mp displayStringTextFormat "\"processed %p pk (%l)\""
par Lab661.receiver3.ipv4.mp forwardServiceRegistration true
par Lab661.receiver3.ipv4.mp forwardProtocolRegistration true
par Lab661.receiver3.ipv4.ip typename "\"inet.networklayer.ipv4.Ipv4\""
par Lab661.receiver3.ipv4.ip interfaceTableModule "\"Lab661.receiver3.interfaceTable\""
par Lab661.receiver3.ipv4.ip routingTableModule "\"Lab661.receiver3.ipv4.routingTable\""
par Lab661.receiver3.ipv4.ip arpModule "\"Lab661.receiver3.ipv4.arp\""
par Lab661.receiver3.ipv4.ip icmpModule "\"Lab661.receiver3.ipv4.icmp\""
par Lab661.receiver3.ipv4.ip crcMode "\"declared\""
attr enum declared,computed
par Lab661.receiver3.ipv4.ip timeToLive 32
par Lab661.receiver3.ipv4.ip multicastTimeToLive 32
par Lab661.receiver3.ipv4.ip fragmentTimeout 60s
attr unit s
par Lab661.receiver3.ipv4.ip limitedBroadcast false
par Lab661.receiver3.ipv4.ip directBroadcastInterfaces "\"\""
scalar Lab661.receiver3.ipv4.ip packetDropAddressResolutionFailed:count 0
attr interpolationmode none
attr recordingmode count
attr source packetDropReasonIsAddressResolutionFailed(packetDropped)
attr title "packet drop: address resolution failed, count"
scalar Lab661.receiver3.ipv4.ip packetDropAddressResolutionFailed:sum(packetBytes) 0
attr interpolationmode none
attr recordingmode sum(packetBytes)
attr source packetDropReasonIsAddressResolutionFailed(packetDropped)
attr title "packet drop: address resolution failed, sum(packetBytes)"
scalar Lab661.receiver3.ipv4.ip packetDropHopLimitReached:count 0
attr interpolationmode none
attr recordingmode count
attr source packetDropReasonIsHopLimitReached(packetDropped)
attr title "packet drop: hop limit reached, count"
scalar Lab661.receiver3.ipv4.ip packetDropHopLimitReached:sum(packetBytes) 0
attr interpolationmode none
attr recordingmode sum(packetBytes)
attr source packetDropReasonIsHopLimitReached(packetDropped)
attr title "packet drop: hop limit reached, sum(packetBytes)"
scalar Lab661.receiver3.ipv4.ip packetDropForwardingDisabled:count 0
attr interpolationmode none
attr recordingmode count
attr source packetDropReasonIsForwardingDisabled(packetDropped)
attr title "packet drop: forwarding disabled, count"
scalar Lab661.receiver3.ipv4.ip packetDropForwardingDisabled:sum(packetBytes) 0
attr interpolationmode none
attr recordingmode sum(packetBytes)
attr source packetDropReasonIsForwardingDisabled(packetDropped)
attr title "packet drop: forwarding disabled, sum(packetBytes)"
scalar Lab661.receiver3.ipv4.ip packetDropNoInterfaceFound:count 0
attr interpolationmode none
attr recordingmode count
attr source packetDropReasonIsNoInterfaceFound(packetDropped)
attr title "packet drop: no interface found, count"
scalar Lab661.receiver3.ipv4.ip packetDropNoInterfaceFound:sum(packetBytes) 0
attr interpolationmode none
attr recordingmode sum(packetBytes)
attr source packetDropReasonIsNoInterfaceFound(packetDropped)
attr title "packet drop: no interface found, sum(packetBytes)"
scalar Lab661.receiver3.ipv4.ip packetDropNoRouteFound:count 0
attr interpolationmode none
attr recordingmode count
attr source packetDropReasonIsNoRouteFound(packetDropped)
attr title "packet drop: no route found, count"
scalar Lab661.receiver3.ipv4.ip packetDropNoRouteFound:sum(packetBytes) 0
attr interpolationmode none
attr recordingmode sum(packetBytes)
attr source packetDropReasonIsNoRouteFound(packetDropped)
attr title "packet drop: no route found, sum(packetBytes)"
scalar Lab661.receiver3.ipv4.ip packetDropUndefined:count 0
attr interpolationmode none
attr recordingmode count
attr source packetDropReasonIsUndefined(packetDropped)
attr title "packet drop: undefined, count"
scalar Lab661.receiver3.ipv4.ip packetDropUndefined:sum(packetBytes) 0
attr interpolationmode none
attr recordingmode sum(packetBytes)
attr source packetDropReasonIsUndefined(packetDropped)
attr title "packet drop: undefined, sum(packetBytes)"
par Lab661.receiver3.ipv4.arp typename "\"inet.networklayer.arp.ipv4.Arp\""
par Lab661.receiver3.ipv4.arp interfaceTableModule "\"Lab661.receiver3.interfaceTable\""
par Lab661.receiver3.ipv4.arp routingTableModule "\"Lab661.receiver3.ipv4.routingTable\""
par Lab661.receiver3.ipv4.arp retryTimeout 1s
attr unit s
par Lab661.receiver3.ipv4.arp retryCount 3
par Lab661.receiver3.ipv4.arp cacheTimeout 120s
attr unit s
par Lab661.receiver3.ipv4.arp proxyArpInterfaces "\"\""
scalar Lab661.receiver3.ipv4.arp arpResolutionFailed:count 0
attr recordingmode count
attr title "ARP failed resolutions, count"
scalar Lab661.receiver3.ipv4.arp arpResolutionCompleted:count 0
attr recordingmode count
attr title "ARP completed resolutions, count"
scalar Lab661.receiver3.ipv4.arp arpResolutionInitiated:count 0
attr recordingmode count
attr title "ARP initiated resolutions, count"
scalar Lab661.receiver3.ipv4.arp arpReplySent:count 0
attr recordingmode count
attr source arpReplySent
attr title "ARP replies sent, count"
scalar Lab661.receiver3.ipv4.arp arpReplySent:sum(packetBytes) 0
attr recordingmode sum(packetBytes)
attr source arpReplySent
attr title "ARP replies sent, sum(packetBytes)"
scalar Lab661.receiver3.ipv4.arp arpRequestSent:count 0
attr recordingmode count
attr source arpRequestSent
attr title "ARP request sent, count"
scalar Lab661.receiver3.ipv4.arp arpRequestSent:sum(packetBytes) 0
attr recordingmode sum(packetBytes)
attr source arpRequestSent
attr title "ARP request sent, sum(packetBytes)"
par Lab661.receiver3.ipv4.lp typename "\"inet.common.MessageDispatcher\""
par Lab661.receiver3.ipv4.lp displayStringTextFormat "\"processed %p pk (%l)\""
par Lab661.receiver3.ipv4.lp forwardServiceRegistration true
par Lab661.receiver3.ipv4.lp forwardProtocolRegistration true
par Lab661.receiver3.ipv4 typename "\"inet.networklayer.ipv4.Ipv4NetworkLayer\""
par Lab661.receiver3.ipv4 forwarding false
par Lab661.receiver3.ipv4 multicastForwarding false
par Lab661.receiver3.ipv4 interfaceTableModule "\"Lab661.receiver3.interfaceTable\""
par Lab661.receiver3.ipv4 displayStringTextFormat "\"%i\""
par Lab661.receiver3.nl typename "\"inet.common.MessageDispatcher\""
par Lab661.receiver3.nl displayStringTextFormat "\"processed %p pk (%l)\""
par Lab661.receiver3.nl forwardServiceRegistration true
par Lab661.receiver3.nl forwardProtocolRegistration true
par Lab661.receiver3.udp typename "\"inet.transportlayer.udp.Udp\""
par Lab661.receiver3.udp interfaceTableModule "\"Lab661.receiver3.interfaceTable\""
par Lab661.receiver3.udp icmpModule "\"^.ipv4.icmp\""
par Lab661.receiver3.udp icmpv6Module "\"^.ipv6.icmpv6\""
par Lab661.receiver3.udp crcMode "\"declared\""
attr enum disabled,declared,computed
par Lab661.receiver3.udp defaultMulticastLoop true
scalar Lab661.receiver3.udp packetReceived:count 0
attr interpolationmode none
attr recordingmode count
attr source packetReceived
attr title "packets received, count"
scalar Lab661.receiver3.udp packetReceived:sum(packetBytes) 0
attr interpolationmode none
attr recordingmode sum(packetBytes)
attr source packetReceived
attr title "packets received, sum(packetBytes)"
scalar Lab661.receiver3.udp packetSent:count 0
attr interpolationmode none
attr recordingmode count
attr source packetSent
attr title "packets sent, count"
scalar Lab661.receiver3.udp packetSent:sum(packetBytes) 0
attr interpolationmode none
attr recordingmode sum(packetBytes)
attr source packetSent
attr title "packets sent, sum(packetBytes)"
scalar Lab661.receiver3.udp passedUpPk:count 0
attr interpolationmode none
attr recordingmode count
attr source packetSentToUpper
attr title "packets passed up, count"
scalar Lab661.receiver3.udp droppedPkWrongPort:count 0
attr interpolationmode none
attr recordingmode count
attr source packetDropReasonIsNoPortFound(packetDropped)
attr title "packets dropped (wrong port), count"
scalar Lab661.receiver3.udp droppedPkBadChecksum:count 0
attr interpolationmode none
attr recordingmode count
attr source packetDropReasonIsIncorrectlyReceived(packetDropped)
attr title "packets dropped (checksum error), count"
par Lab661.receiver3.tcp.conn-5 typename "\"inet.transportlayer.tcp.TcpConnection\""
par Lab661.receiver3.tcp.conn-25 typename "\"inet.transportlayer.tcp.TcpConnection\""
par Lab661.receiver3.tcp typename "\"inet.transportlayer.tcp.Tcp\""
par Lab661.receiver3.tcp crcMode "\"declared\""
attr enum declared,computed
par Lab661.receiver3.tcp advertisedWindow 65535
par Lab661.receiver3.tcp delayedAcksEnabled false
par Lab661.receiver3.tcp nagleEnabled true
par Lab661.receiver3.tcp limitedTransmitEnabled false
par Lab661.receiver3.tcp increasedIWEnabled false
par Lab661.receiver3.tcp sackSupport false
par Lab661.receiver3.tcp windowScalingSupport false
par Lab661.receiver3.tcp windowScalingFactor -1
par Lab661.receiver3.tcp timestampSupport false
par Lab661.receiver3.tcp mss 1460
par Lab661.receiver3.tcp msl 120s
attr unit s
par Lab661.receiver3.tcp tcpAlgorithmClass "\"TcpReno\""
par Lab661.receiver3.tcp useDataNotification false
par Lab661.receiver3.tcp dupthresh 3
par Lab661.receiver3.tcp initialSsthresh 65536
par Lab661.receiver3.tcp stopOperationExtraTime 0s
attr unit s
par Lab661.receiver3.tcp stopOperationTimeout 2s
attr unit s
par Lab661.receiver3.tcp ecnWillingness false
par Lab661.receiver3.tcp dctcpGamma 0.0625
par Lab661.receiver3.tn typename "\"inet.common.MessageDispatcher\""
par Lab661.receiver3.tn displayStringTextFormat "\"processed %p pk (%l)\""
par Lab661.receiver3.tn forwardServiceRegistration true
par Lab661.receiver3.tn forwardProtocolRegistration true
par Lab661.receiver3.app[0].thread_25 typename "\"inet.applications.tcpapp.TcpSinkAppThread\""
scalar Lab661.receiver3.app[0].thread_25 packetReceived:count 1661
attr interpolationmode none
attr recordingmode count
attr source packetReceived
attr title "packets received, count"
scalar Lab661.receiver3.app[0].thread_25 packetReceived:sum(packetBytes) 2743340
attr interpolationmode none
attr recordingmode sum(packetBytes)
attr source packetReceived
attr title "packets received, sum(packetBytes)"
statistic Lab661.receiver3.app[0].thread_25 endToEndDelay:histogram
field count 1879
field mean 10.137222954743
field stddev 4.6248400984396
field min 0.0466496
field max 17.916720081753
field sum 19047.841931961
field sqrsum 233261.03653905
attr interpolationmode none
attr recordingmode histogram
attr source dataAge(packetReceived)
attr title "end-to-end delay"
attr unit s
bin	-inf	0
bin	0	3
bin	0.2	13
bin	0.4	12
bin	0.6	2
bin	0.8	0
bin	1	0
bin	1.2	0
bin	1.4	0
bin	1.6	0
bin	1.8	0
bin	2	0
bin	2.2	0
bin	2.4	12
bin	2.6	6
bin	2.8	13
bin	3	8
bin	3.2	11
bin	3.4	16
bin	3.6	23
bin	3.8	25
bin	4	29
bin	4.2	33
bin	4.4	34
bin	4.6	33
bin	4.8	28
bin	5	26
bin	5.2	29
bin	5.4	33
bin	5.6	33
bin	5.8	33
bin	6	29
bin	6.2	25
bin	6.4	30
bin	6.6	33
bin	6.8	33
bin	7	27
bin	7.2	30
bin	7.4	27
bin	7.6	19
bin	7.8	16
bin	8	22
bin	8.2	28
bin	8.4	31
bin	8.6	33
bin	8.8	33
bin	9	29
bin	9.2	26
bin	9.4	5
bin	9.6	13
bin	9.8	10
bin	10	3
bin	10.2	11
bin	10.4	14
bin	10.6	16
bin	10.8	18
bin	11	25
bin	11.2	29
bin	11.4	33
bin	11.6	33
bin	11.8	33
bin	12	29
bin	12.2	18
bin	12.4	16
bin	12.6	17
bin	12.8	9
bin	13	21
bin	13.2	20
bin	13.4	21
bin	13.6	25
bin	13.8	31
bin	14	33
bin	14.2	34
bin	14.4	30
bin	14.6	30
bin	14.8	22
bin	15	10
bin	15.2	11
bin	15.4	13
bin	15.6	13
bin	15.8	17
bin	16	25
bin	16.2	30
bin	16.4	33
bin	16.6	33
bin	16.8	33
bin	17	33
bin	17.2	21
bin	17.4	29
bin	17.6	33
bin	17.8	20
bin	18	0
statistic Lab661.receiver3.app[0].thread_25 endToEndDelay:weightedHistogram
field count 1879
field mean 10.137222954743
field stddev 4.6248400984397
field min 0.0466496
field max 17.916720081753
field weights 21946720
field weightedSum 222478793.76531
field sqrSumWeights 256337689600
field weightedSqrSum 2724488906.7761
attr interpolationmode none
attr recordingmode weightedHistogram
attr source dataAge(packetReceived)
attr title "end-to-end delay, weightedHistogram"
attr unit s
bin	-inf	0
bin	0	35040
bin	0.2	151840
bin	0.4	140160
bin	0.6	23360
bin	0.8	0
bin	1	0
bin	1.2	0
bin	1.4	0
bin	1.6	0
bin	1.8	0
bin	2	0
bin	2.2	0
bin	2.4	140160
bin	2.6	70080
bin	2.8	151840
bin	3	93440
bin	3.2	128480
bin	3.4	186880
bin	3.6	268640
bin	3.8	292000
bin	4	338720
bin	4.2	385440
bin	4.4	397120
bin	4.6	385440
bin	4.8	327040
bin	5	303680
bin	5.2	338720
bin	5.4	385440
bin	5.6	385440
bin	5.8	385440
bin	6	338720
bin	6.2	292000
bin	6.4	350400
bin	6.6	385440
bin	6.8	385440
bin	7	315360
bin	7.2	350400
bin	7.4	315360
bin	7.6	221920
bin	7.8	186880
bin	8	256960
bin	8.2	327040
bin	8.4	362080
bin	8.6	385440
bin	8.8	385440
bin	9	338720
bin	9.2	303680
bin	9.4	58400
bin	9.6	151840
bin	9.8	116800
bin	10	35040
bin	10.2	128480
bin	10.4	163520
bin	10.6	186880
bin	10.8	210240
bin	11	292000
bin	11.2	338720
bin	11.4	385440
bin	11.6	385440
bin	11.8	385440
bin	12	338720
bin	12.2	210240
bin	12.4	186880
bin	12.6	198560
bin	12.8	105120
bin	13	245280
bin	13.2	233600
bin	13.4	245280
bin	13.6	292000
bin	13.8	362080
bin	14	385440
bin	14.2	397120
bin	14.4	350400
bin	14.6	350400
bin	14.8	256960
bin	15	116800
bin	15.2	128480
bin	15.4	151840
bin	15.6	151840
bin	15.8	198560
bin	16	292000
bin	16.2	350400
bin	16.4	385440
bin	16.6	385440
bin	16.8	385440
bin	17	385440
bin	17.2	245280
bin	17.4	338720
bin	17.6	385440
bin	17.8	233600
bin	18	0
par Lab661.receiver3.app[0] typename "\"inet.applications.tcpapp.TcpSinkApp\""
par Lab661.receiver3.app[0] localAddress "\"\""
par Lab661.receiver3.app[0] localPort 1001
par Lab661.receiver3.app[0] serverThreadModuleType "\"inet.applications.tcpapp.TcpSinkAppThread\""
par Lab661.receiver3.app[0] stopOperationExtraTime -1s
attr unit s
par Lab661.receiver3.app[0] stopOperationTimeout 2s
attr unit s
scalar Lab661.receiver3.app[0] bytesRcvd 2743340
scalar Lab661.receiver3.app[0] packetReceived:count 1661
attr checkSignals false
attr interpolationmode none
attr recordingmode count
attr source packetReceived
attr title "packets received, count"
scalar Lab661.receiver3.app[0] packetReceived:sum(packetBytes) 2743340
attr checkSignals false
attr interpolationmode none
attr recordingmode sum(packetBytes)
attr source packetReceived
attr title "packets received, sum(packetBytes)"
statistic Lab661.receiver3.app[0] endToEndDelay:histogram
field count 1879
field mean 10.137222954743
field stddev 4.6248400984396
field min 0.0466496
field max 17.916720081753
field sum 19047.841931961
field sqrsum 233261.03653905
attr checkSignals false
attr interpolationmode none
attr recordingmode histogram
attr source dataAge(packetReceived)
attr title "end-to-end delay"
attr unit s
bin	-inf	0
bin	0	3
bin	0.2	13
bin	0.4	12
bin	0.6	2
bin	0.8	0
bin	1	0
bin	1.2	0
bin	1.4	0
bin	1.6	0
bin	1.8	0
bin	2	0
bin	2.2	0
bin	2.4	12
bin	2.6	6
bin	2.8	13
bin	3	8
bin	3.2	11
bin	3.4	16
bin	3.6	23
bin	3.8	25
bin	4	29
bin	4.2	33
bin	4.4	34
bin	4.6	33
bin	4.8	28
bin	5	26
bin	5.2	29
bin	5.4	33
bin	5.6	33
bin	5.8	33
bin	6	29
bin	6.2	25
bin	6.4	30
bin	6.6	33
bin	6.8	33
bin	7	27
bin	7.2	30
bin	7.4	27
bin	7.6	19
bin	7.8	16
bin	8	22
bin	8.2	28
bin	8.4	31
bin	8.6	33
bin	8.8	33
bin	9	29
bin	9.2	26
bin	9.4	5
bin	9.6	13
bin	9.8	10
bin	10	3
bin	10.2	11
bin	10.4	14
bin	10.6	16
bin	10.8	18
bin	11	25
bin	11.2	29
bin	11.4	33
bin	11.6	33
bin	11.8	33
bin	12	29
bin	12.2	18
bin	12.4	16
bin	12.6	17
bin	12.8	9
bin	13	21
bin	13.2	20
bin	13.4	21
bin	13.6	25
bin	13.8	31
bin	14	33
bin	14.2	34
bin	14.4	30
bin	14.6	30
bin	14.8	22
bin	15	10
bin	15.2	11
bin	15.4	13
bin	15.6	13
bin	15.8	17
bin	16	25
bin	16.2	30
bin	16.4	33
bin	16.6	33
bin	16.8	33
bin	17	33
bin	17.2	21
bin	17.4	29
bin	17.6	33
bin	17.8	20
bin	18	0
statistic Lab661.receiver3.app[0] endToEndDelay:weightedHistogram
field count 1879
field mean 10.137222954743
field stddev 4.6248400984397
field min 0.0466496
field max 17.916720081753
field weights 21946720
field weightedSum 222478793.76531
field sqrSumWeights 256337689600
field weightedSqrSum 2724488906.7761
attr checkSignals false
attr interpolationmode none
attr recordingmode weightedHistogram
attr source dataAge(packetReceived)
attr title "end-to-end delay, weightedHistogram"
attr unit s
bin	-inf	0
bin	0	35040
bin	0.2	151840
bin	0.4	140160
bin	0.6	23360
bin	0.8	0
bin	1	0
bin	1.2	0
bin	1.4	0
bin	1.6	0
bin	1.8	0
bin	2	0
bin	2.2	0
bin	2.4	140160
bin	2.6	70080
bin	2.8	151840
bin	3	93440
bin	3.2	128480
bin	3.4	186880
bin	3.6	268640
bin	3.8	292000
bin	4	338720
bin	4.2	385440
bin	4.4	397120
bin	4.6	385440
bin	4.8	327040
bin	5	303680
bin	5.2	338720
bin	5.4	385440
bin	5.6	385440
bin	5.8	385440
bin	6	338720
bin	6.2	292000
bin	6.4	350400
bin	6.6	385440
bin	6.8	385440
bin	7	315360
bin	7.2	350400
bin	7.4	315360
bin	7.6	221920
bin	7.8	186880
bin	8	256960
bin	8.2	327040
bin	8.4	362080
bin	8.6	385440
bin	8.8	385440
bin	9	338720
bin	9.2	303680
bin	9.4	58400
bin	9.6	151840
bin	9.8	116800
bin	10	35040
bin	10.2	128480
bin	10.4	163520
bin	10.6	186880
bin	10.8	210240
bin	11	292000
bin	11.2	338720
bin	11.4	385440
bin	11.6	385440
bin	11.8	385440
bin	12	338720
bin	12.2	210240
bin	12.4	186880
bin	12.6	198560
bin	12.8	105120
bin	13	245280
bin	13.2	233600
bin	13.4	245280
bin	13.6	292000
bin	13.8	362080
bin	14	385440
bin	14.2	397120
bin	14.4	350400
bin	14.6	350400
bin	14.8	256960
bin	15	116800
bin	15.2	128480
bin	15.4	151840
bin	15.6	151840
bin	15.8	198560
bin	16	292000
bin	16.2	350400
bin	16.4	385440
bin	16.6	385440
bin	16.8	385440
bin	17	385440
bin	17.2	245280
bin	17.4	338720
bin	17.6	385440
bin	17.8	233600
bin	18	0
par Lab661.receiver3.at typename "\"inet.common.MessageDispatcher\""
par Lab661.receiver3.at displayStringTextFormat "\"processed %p pk (%l)\""
par Lab661.receiver3.at forwardServiceRegistration true
par Lab661.receiver3.at forwardProtocolRegistration true
par Lab661.receiver3 typename "\"inet.node.inet.StandardHost\""
par Lab661.receiver3 hasStatus false
par Lab661.receiver3 osgModel "\"\""
par Lab661.receiver3 osgModelColor "\"\""
par Lab661.receiver3 canvasImage "\"\""
par Lab661.receiver3 canvasImageColor "\"\""
par Lab661.receiver3 recordPcap false
par Lab661.receiver3 numPcapRecorders 0
par Lab661.receiver3 numLoInterfaces 1
par Lab661.receiver3 numWlanInterfaces 0
par Lab661.receiver3 numEthInterfaces 0
par Lab661.receiver3 numPppInterfaces 0
par Lab661.receiver3 numTunInterfaces 0
par Lab661.receiver3 numVirtInterfaces 0
par Lab661.receiver3 fcsMode "\"declared\""
attr enum declared,computed
par Lab661.receiver3 hasIpv4 true
par Lab661.receiver3 hasIpv6 false
par Lab661.receiver3 hasGn false
par Lab661.receiver3 forwarding false
par Lab661.receiver3 multicastForwarding false
par Lab661.receiver3 hasUdp true
par Lab661.receiver3 hasTcp true
par Lab661.receiver3 hasSctp false
par Lab661.receiver3 numApps 1
par Lab661.configurator typename "\"inet.networklayer.configurator.ipv4.Ipv4NetworkConfigurator\""
par Lab661.configurator minLinkWeight 0.001
par Lab661.configurator configureIsolatedNetworksSeparatly false
par Lab661.configurator config "<config>...</config> at content:1"
par Lab661.configurator assignAddresses true
par Lab661.configurator assignUniqueAddresses true
par Lab661.configurator assignDisjunctSubnetAddresses true
par Lab661.configurator addStaticRoutes true
par Lab661.configurator addDefaultRoutes true
par Lab661.configurator addSubnetRoutes true
par Lab661.configurator addDirectRoutes true
par Lab661.configurator optimizeRoutes true
par Lab661.configurator dumpTopology false
par Lab661.configurator dumpLinks false
par Lab661.configurator dumpAddresses false
par Lab661.configurator dumpRoutes false
par Lab661.configurator dumpConfig "\"\""
par Lab661 typename "\"inet.examples.lab_dup_58661_2024.Lab661\""

