version 3
run Lab_erg_ask2_dropTail-0-20250114-22:46:16-34856
attr configname Lab_erg_ask2_dropTail
attr datetime 20250114-22:46:16
attr datetimef 20250114-224616
attr experiment Lab_erg_ask2_dropTail
attr inifile omnetpp.ini
attr iterationvars ""
attr iterationvarsd ""
attr iterationvarsf ""
attr measurement ""
attr network Lab661
attr processid 34856
attr repetition 0
attr replication #0
attr resultdir results
attr runnumber 0
attr seedset 0
config image-path ../../images
config network Lab661
config **.vector-recording true
config **.scalar-recording true
config **.sender*.udp.*.recordStatistics true
config **.receiver*.udp.*.recordStatistics true
config **.router1*.ppp[*].queue.typename DropTailQueue
config **.router1*.ppp[*].queue.packetCapacity 5
config **.router2*.ppp[*].queue.typename DropTailQueue
config **.router2*.ppp[*].queue.packetCapacity 5
config sim-time-limit 25s
config **.vector-recording true
config **.tcp.typename Tcp
config **.tcp.advertisedWindow 65535
config **.tcp.mss 1460
config **.tcp.initialSsthresh 65536
config **.tcp.tcpAlgorithmClass "\"TcpReno\""
config **.sender1.numApps 1
config **.sender1.app[0].typename TcpSessionApp
config **.sender1.app[0].connectAddress "\"receiver1\""
config **.sender1.app[0].connectPort 1001
config **.sender1.app[0].tOpen 1s
config **.sender1.app[0].sendBytes 1GB
config **.sender2.numApps 1
config **.sender2.app[0].typename TcpSessionApp
config **.sender2.app[0].connectAddress "\"receiver1\""
config **.sender2.app[0].connectPort 1001
config **.sender2.app[0].tOpen 3s
config **.sender2.app[0].sendBytes 1GB
config **.sender3.numApps 1
config **.sender3.app[0].typename TcpSessionApp
config **.sender3.app[0].connectAddress "\"receiver3\""
config **.sender3.app[0].connectPort 1001
config **.sender3.app[0].tOpen 7s
config **.sender3.app[0].sendBytes 1GB
config **.receiver1.numApps 1
config **.receiver1.app[0].typename TcpSinkApp
config **.receiver1.app[0].localPort 1001
config **.receiver2.numApps 1
config **.receiver2.app[0].typename TcpSinkApp
config **.receiver2.app[0].localPort 1001
config **.receiver3.numApps 1
config **.receiver3.app[0].typename TcpSinkApp
config **.receiver3.app[0].localPort 1001

par Lab661.sender1.pppg$o[0].channel typename "\"ned.DatarateChannel\""
par Lab661.sender1.pppg$o[0].channel disabled false
attr mutable ""
par Lab661.sender1.pppg$o[0].channel delay 0.02s
attr mutable ""
attr unit s
par Lab661.sender1.pppg$o[0].channel datarate 9e+06bps
attr mutable ""
attr unit bps
par Lab661.sender1.pppg$o[0].channel ber 0
attr mutable ""
par Lab661.sender1.pppg$o[0].channel per 0
attr mutable ""
par Lab661.router1.pppg$o[0].channel typename "\"ned.DatarateChannel\""
par Lab661.router1.pppg$o[0].channel disabled false
attr mutable ""
par Lab661.router1.pppg$o[0].channel delay 0.02s
attr mutable ""
attr unit s
par Lab661.router1.pppg$o[0].channel datarate 9e+06bps
attr mutable ""
attr unit bps
par Lab661.router1.pppg$o[0].channel ber 0
attr mutable ""
par Lab661.router1.pppg$o[0].channel per 0
attr mutable ""
par Lab661.sender2.pppg$o[0].channel typename "\"ned.DatarateChannel\""
par Lab661.sender2.pppg$o[0].channel disabled false
attr mutable ""
par Lab661.sender2.pppg$o[0].channel delay 0.02s
attr mutable ""
attr unit s
par Lab661.sender2.pppg$o[0].channel datarate 2e+06bps
attr mutable ""
attr unit bps
par Lab661.sender2.pppg$o[0].channel ber 0
attr mutable ""
par Lab661.sender2.pppg$o[0].channel per 0
attr mutable ""
par Lab661.router1.pppg$o[1].channel typename "\"ned.DatarateChannel\""
par Lab661.router1.pppg$o[1].channel disabled false
attr mutable ""
par Lab661.router1.pppg$o[1].channel delay 0.02s
attr mutable ""
attr unit s
par Lab661.router1.pppg$o[1].channel datarate 2e+06bps
attr mutable ""
attr unit bps
par Lab661.router1.pppg$o[1].channel ber 0
attr mutable ""
par Lab661.router1.pppg$o[1].channel per 0
attr mutable ""
par Lab661.sender3.pppg$o[0].channel typename "\"ned.DatarateChannel\""
par Lab661.sender3.pppg$o[0].channel disabled false
attr mutable ""
par Lab661.sender3.pppg$o[0].channel delay 0.02s
attr mutable ""
attr unit s
par Lab661.sender3.pppg$o[0].channel datarate 2e+07bps
attr mutable ""
attr unit bps
par Lab661.sender3.pppg$o[0].channel ber 0
attr mutable ""
par Lab661.sender3.pppg$o[0].channel per 0
attr mutable ""
par Lab661.router2.pppg$o[0].channel typename "\"ned.DatarateChannel\""
par Lab661.router2.pppg$o[0].channel disabled false
attr mutable ""
par Lab661.router2.pppg$o[0].channel delay 0.02s
attr mutable ""
attr unit s
par Lab661.router2.pppg$o[0].channel datarate 2e+07bps
attr mutable ""
attr unit bps
par Lab661.router2.pppg$o[0].channel ber 0
attr mutable ""
par Lab661.router2.pppg$o[0].channel per 0
attr mutable ""
par Lab661.router1.pppg$o[2].channel typename "\"ned.DatarateChannel\""
par Lab661.router1.pppg$o[2].channel disabled false
attr mutable ""
par Lab661.router1.pppg$o[2].channel delay 0.02s
attr mutable ""
attr unit s
par Lab661.router1.pppg$o[2].channel datarate 2e+06bps
attr mutable ""
attr unit bps
par Lab661.router1.pppg$o[2].channel ber 0
attr mutable ""
par Lab661.router1.pppg$o[2].channel per 0
attr mutable ""
par Lab661.router2.pppg$o[1].channel typename "\"ned.DatarateChannel\""
par Lab661.router2.pppg$o[1].channel disabled false
attr mutable ""
par Lab661.router2.pppg$o[1].channel delay 0.02s
attr mutable ""
attr unit s
par Lab661.router2.pppg$o[1].channel datarate 2e+06bps
attr mutable ""
attr unit bps
par Lab661.router2.pppg$o[1].channel ber 0
attr mutable ""
par Lab661.router2.pppg$o[1].channel per 0
attr mutable ""
par Lab661.receiver1.pppg$o[0].channel typename "\"ned.DatarateChannel\""
par Lab661.receiver1.pppg$o[0].channel disabled false
attr mutable ""
par Lab661.receiver1.pppg$o[0].channel delay 0.02s
attr mutable ""
attr unit s
par Lab661.receiver1.pppg$o[0].channel datarate 2e+06bps
attr mutable ""
attr unit bps
par Lab661.receiver1.pppg$o[0].channel ber 0
attr mutable ""
par Lab661.receiver1.pppg$o[0].channel per 0
attr mutable ""
par Lab661.router2.pppg$o[2].channel typename "\"ned.DatarateChannel\""
par Lab661.router2.pppg$o[2].channel disabled false
attr mutable ""
par Lab661.router2.pppg$o[2].channel delay 0.02s
attr mutable ""
attr unit s
par Lab661.router2.pppg$o[2].channel datarate 2e+06bps
attr mutable ""
attr unit bps
par Lab661.router2.pppg$o[2].channel ber 0
attr mutable ""
par Lab661.router2.pppg$o[2].channel per 0
attr mutable ""
par Lab661.receiver2.pppg$o[0].channel typename "\"ned.DatarateChannel\""
par Lab661.receiver2.pppg$o[0].channel disabled false
attr mutable ""
par Lab661.receiver2.pppg$o[0].channel delay 0.02s
attr mutable ""
attr unit s
par Lab661.receiver2.pppg$o[0].channel datarate 4e+06bps
attr mutable ""
attr unit bps
par Lab661.receiver2.pppg$o[0].channel ber 0
attr mutable ""
par Lab661.receiver2.pppg$o[0].channel per 0
attr mutable ""
par Lab661.router2.pppg$o[3].channel typename "\"ned.DatarateChannel\""
par Lab661.router2.pppg$o[3].channel disabled false
attr mutable ""
par Lab661.router2.pppg$o[3].channel delay 0.02s
attr mutable ""
attr unit s
par Lab661.router2.pppg$o[3].channel datarate 4e+06bps
attr mutable ""
attr unit bps
par Lab661.router2.pppg$o[3].channel ber 0
attr mutable ""
par Lab661.router2.pppg$o[3].channel per 0
attr mutable ""
par Lab661.receiver3.pppg$o[0].channel typename "\"ned.DatarateChannel\""
par Lab661.receiver3.pppg$o[0].channel disabled false
attr mutable ""
par Lab661.receiver3.pppg$o[0].channel delay 0.02s
attr mutable ""
attr unit s
par Lab661.receiver3.pppg$o[0].channel datarate 2e+06bps
attr mutable ""
attr unit bps
par Lab661.receiver3.pppg$o[0].channel ber 0
attr mutable ""
par Lab661.receiver3.pppg$o[0].channel per 0
attr mutable ""
par Lab661.router2.pppg$o[4].channel typename "\"ned.DatarateChannel\""
par Lab661.router2.pppg$o[4].channel disabled false
attr mutable ""
par Lab661.router2.pppg$o[4].channel delay 0.02s
attr mutable ""
attr unit s
par Lab661.router2.pppg$o[4].channel datarate 2e+06bps
attr mutable ""
attr unit bps
par Lab661.router2.pppg$o[4].channel ber 0
attr mutable ""
par Lab661.router2.pppg$o[4].channel per 0
attr mutable ""
par Lab661.router2.pppg$i[0].channel typename "\"ned.IdealChannel\""
par Lab661.router2.ppp[0].phys$o.channel typename "\"ned.IdealChannel\""
par Lab661.router2.pppg$i[1].channel typename "\"ned.IdealChannel\""
par Lab661.router2.ppp[1].phys$o.channel typename "\"ned.IdealChannel\""
par Lab661.router2.pppg$i[2].channel typename "\"ned.IdealChannel\""
par Lab661.router2.ppp[2].phys$o.channel typename "\"ned.IdealChannel\""
par Lab661.router2.pppg$i[3].channel typename "\"ned.IdealChannel\""
par Lab661.router2.ppp[3].phys$o.channel typename "\"ned.IdealChannel\""
par Lab661.router2.pppg$i[4].channel typename "\"ned.IdealChannel\""
par Lab661.router2.ppp[4].phys$o.channel typename "\"ned.IdealChannel\""
par Lab661.router2.interfaceTable typename "\"inet.networklayer.common.InterfaceTable\""
par Lab661.router2.interfaceTable displayAddresses false
par Lab661.router2.cb typename "\"inet.common.MessageDispatcher\""
par Lab661.router2.cb displayStringTextFormat "\"processed %p pk (%l)\""
par Lab661.router2.cb forwardServiceRegistration true
par Lab661.router2.cb forwardProtocolRegistration true
par Lab661.router2.bl typename "\"inet.common.MessageDispatcher\""
par Lab661.router2.bl displayStringTextFormat "\"processed %p pk (%l)\""
par Lab661.router2.bl forwardServiceRegistration true
par Lab661.router2.bl forwardProtocolRegistration true
par Lab661.router2.li typename "\"inet.common.MessageDispatcher\""
par Lab661.router2.li displayStringTextFormat "\"processed %p pk (%l)\""
par Lab661.router2.li forwardServiceRegistration true
par Lab661.router2.li forwardProtocolRegistration true
par Lab661.router2.lo[0].upperLayerIn.channel typename "\"ned.IdealChannel\""
par Lab661.router2.lo[0].lo.upperLayerOut.channel typename "\"ned.IdealChannel\""
par Lab661.router2.lo[0].lo typename "\"inet.linklayer.loopback.Loopback\""
par Lab661.router2.lo[0].lo interfaceTableModule "\"Lab661.router2.interfaceTable\""
par Lab661.router2.lo[0].lo mtu 4470B
attr unit B
scalar Lab661.router2.lo[0].lo rcvdPkFromHl:count 0
attr interpolationmode none
attr recordingmode count
attr source packetReceivedFromUpper
attr title "packets received from higher layer, count"
scalar Lab661.router2.lo[0].lo rcvdPkFromHl:sum(packetBytes) 0
attr interpolationmode none
attr recordingmode sum(packetBytes)
attr source packetReceivedFromUpper
attr title "packets received from higher layer, sum(packetBytes)"
scalar Lab661.router2.lo[0].lo passedUpPk:count 0
attr interpolationmode none
attr recordingmode count
attr source packetSentToUpper
attr title "packets passed to higher layer, count"
scalar Lab661.router2.lo[0].lo passedUpPk:sum(packetBytes) 0
attr interpolationmode none
attr recordingmode sum(packetBytes)
attr source packetSentToUpper
attr title "packets passed to higher layer, sum(packetBytes)"
par Lab661.router2.lo[0] typename "\"inet.linklayer.loopback.LoopbackInterface\""
par Lab661.router2.lo[0] displayStringTextFormat "\"%a (%i)\\n%m\""
par Lab661.router2.lo[0] recordPcap false
par Lab661.router2.lo[0] numPcapRecorders 0
par Lab661.router2.lo[0] interfaceTableModule "\"Lab661.router2.interfaceTable\""
scalar Lab661.router2.lo[0] packetDropInterfaceDown:count 0
attr interpolationmode none
attr recordingmode count
attr source packetDropReasonIsInterfaceDown(packetDropped)
attr title "packet drops: interface down, count"
scalar Lab661.router2.lo[0] packetDropInterfaceDown:sum(packetBytes) 0
attr interpolationmode none
attr recordingmode sum(packetBytes)
attr source packetDropReasonIsInterfaceDown(packetDropped)
attr title "packet drops: interface down, sum(packetBytes)"
scalar Lab661.router2.lo[0] packetDropNoCarrier:count 0
attr interpolationmode none
attr recordingmode count
attr source packetDropReasonIsNoCarrier(packetDropped)
attr title "packet drops: no carrier, count"
scalar Lab661.router2.lo[0] packetDropNoCarrier:sum(packetBytes) 0
attr interpolationmode none
attr recordingmode sum(packetBytes)
attr source packetDropReasonIsNoCarrier(packetDropped)
attr title "packet drops: no carrier, sum(packetBytes)"
par Lab661.router2.ppp[0].phys$i.channel typename "\"ned.IdealChannel\""
par Lab661.router2.ppp[0].ppp.phys$o.channel typename "\"ned.IdealChannel\""
par Lab661.router2.ppp[0].ppp.upperLayerOut.channel typename "\"ned.IdealChannel\""
par Lab661.router2.ppp[0].upperLayerIn.channel typename "\"ned.IdealChannel\""
par Lab661.router2.ppp[0].queue typename "\"inet.queueing.queue.DropTailQueue\""
par Lab661.router2.ppp[0].queue displayStringTextFormat "\"contains %p pk (%l) pushed %u\\npulled %o removed %r dropped %d\""
par Lab661.router2.ppp[0].queue packetCapacity 5
par Lab661.router2.ppp[0].queue dataCapacity -1b
attr unit b
par Lab661.router2.ppp[0].queue dropperClass "\"inet::queueing::PacketAtCollectionEndDropper\""
par Lab661.router2.ppp[0].queue comparatorClass "\"\""
par Lab661.router2.ppp[0].queue bufferModule "\"\""
scalar Lab661.router2.ppp[0].queue queueLength:last 0
attr autoWarmupFilter false
attr interpolationmode sample-hold
attr recordingmode last
attr source "warmup(atomic(constant0(packetPushEnded) + count(packetPushStarted) - count(packetPulled) - count(packetRemoved) - count(packetDropped)))"
attr title "queue length, last"
attr unit pk
scalar Lab661.router2.ppp[0].queue queueLength:max 0
attr autoWarmupFilter false
attr interpolationmode sample-hold
attr recordingmode max
attr source "warmup(atomic(constant0(packetPushEnded) + count(packetPushStarted) - count(packetPulled) - count(packetRemoved) - count(packetDropped)))"
attr title "queue length, max"
attr unit pk
scalar Lab661.router2.ppp[0].queue queueLength:timeavg 0
attr autoWarmupFilter false
attr interpolationmode sample-hold
attr recordingmode timeavg
attr source "warmup(atomic(constant0(packetPushEnded) + count(packetPushStarted) - count(packetPulled) - count(packetRemoved) - count(packetDropped)))"
attr title "queue length, timeavg"
attr unit pk
scalar Lab661.router2.ppp[0].queue queueBitLength:last 0
attr autoWarmupFilter false
attr interpolationmode sample-hold
attr recordingmode last
attr source "warmup(atomic(constant0(packetPushEnded) + sum(packetLength(packetPushStarted)) - sum(packetLength(packetPulled)) - sum(packetLength(packetRemoved)) - sum(packetLength(packetDropped))))"
attr title "queue bit length, last"
attr unit b
scalar Lab661.router2.ppp[0].queue queueBitLength:max 0
attr autoWarmupFilter false
attr interpolationmode sample-hold
attr recordingmode max
attr source "warmup(atomic(constant0(packetPushEnded) + sum(packetLength(packetPushStarted)) - sum(packetLength(packetPulled)) - sum(packetLength(packetRemoved)) - sum(packetLength(packetDropped))))"
attr title "queue bit length, max"
attr unit b
scalar Lab661.router2.ppp[0].queue queueBitLength:timeavg 0
attr autoWarmupFilter false
attr interpolationmode sample-hold
attr recordingmode timeavg
attr source "warmup(atomic(constant0(packetPushEnded) + sum(packetLength(packetPushStarted)) - sum(packetLength(packetPulled)) - sum(packetLength(packetRemoved)) - sum(packetLength(packetDropped))))"
attr title "queue bit length, timeavg"
attr unit b
statistic Lab661.router2.ppp[0].queue queueingTime:histogram
field count 2275
field mean 0
field stddev 0
field min 0
field max 0
field sum 0
field sqrsum 0
attr interpolationmode none
attr recordingmode histogram
attr source queueingTime(packetPulled)
attr title "queueing times"
attr unit s
bin	-inf	0
bin	-0.5	0
bin	-0.48	0
bin	-0.46	0
bin	-0.44	0
bin	-0.42	0
bin	-0.4	0
bin	-0.38	0
bin	-0.36	0
bin	-0.34	0
bin	-0.32	0
bin	-0.3	0
bin	-0.28	0
bin	-0.26	0
bin	-0.24	0
bin	-0.22	0
bin	-0.2	0
bin	-0.18	0
bin	-0.16	0
bin	-0.14	0
bin	-0.12	0
bin	-0.1	0
bin	-0.08	0
bin	-0.06	0
bin	-0.04	0
bin	-0.02	0
bin	0	2275
bin	0.02	0
bin	0.04	0
bin	0.06	0
bin	0.08	0
bin	0.1	0
bin	0.12	0
bin	0.14	0
bin	0.16	0
bin	0.18	0
bin	0.2	0
bin	0.22	0
bin	0.24	0
bin	0.26	0
bin	0.28	0
bin	0.3	0
bin	0.32	0
bin	0.34	0
bin	0.36	0
bin	0.38	0
bin	0.4	0
bin	0.42	0
bin	0.44	0
bin	0.46	0
bin	0.48	0
bin	0.5	0
scalar Lab661.router2.ppp[0].queue outgoingPackets:count 2275
attr recordingmode count
attr source packetPulled
attr title "outgoing packets, count"
attr unit pk
scalar Lab661.router2.ppp[0].queue outgoingPacketLengths:sum 728032
attr interpolationmode none
attr recordingmode sum
attr source packetLength(packetPulled)
attr title "outgoing packet lengths, sum"
attr unit b
statistic Lab661.router2.ppp[0].queue outgoingPacketLengths:histogram
field count 2275
field mean 320.01406593407
field stddev 0.6709022954991
field min 320
field max 352
field sum 728032
field sqrsum 232981504
attr interpolationmode none
attr recordingmode histogram
attr source packetLength(packetPulled)
attr title "outgoing packet lengths"
attr unit b
bin	-inf	0
bin	312	0
bin	313	0
bin	314	0
bin	315	0
bin	316	0
bin	317	0
bin	318	0
bin	319	0
bin	320	2274
bin	321	0
bin	322	0
bin	323	0
bin	324	0
bin	325	0
bin	326	0
bin	327	0
bin	328	0
bin	329	0
bin	330	0
bin	331	0
bin	332	0
bin	333	0
bin	334	0
bin	335	0
bin	336	0
bin	337	0
bin	338	0
bin	339	0
bin	340	0
bin	341	0
bin	342	0
bin	343	0
bin	344	0
bin	345	0
bin	346	0
bin	347	0
bin	348	0
bin	349	0
bin	350	0
bin	351	0
bin	352	1
bin	353	0
bin	354	0
bin	355	0
bin	356	0
bin	357	0
bin	358	0
bin	359	0
bin	360	0
statistic Lab661.router2.ppp[0].queue flowQueueingTime:histogram
field count 0
field mean -nan
field stddev nan
field min nan
field max nan
field sum 0
field sqrsum 0
attr interpolationmode none
attr recordingmode histogram
attr source queueingTime(demuxFlow(packetPulled))
attr title "flow queueing times"
attr unit s
bin	-inf	0
bin	0	0
bin	1	0
scalar Lab661.router2.ppp[0].queue incomingPackets:count 2275
attr recordingmode count
attr source packetPushStarted
attr title "incoming packets, count"
attr unit pk
scalar Lab661.router2.ppp[0].queue incomingPacketLengths:sum 728032
attr interpolationmode none
attr recordingmode sum
attr source packetLength(packetPushStarted)
attr title "incoming packet lengths, sum"
attr unit b
statistic Lab661.router2.ppp[0].queue incomingPacketLengths:histogram
field count 2275
field mean 320.01406593407
field stddev 0.6709022954991
field min 320
field max 352
field sum 728032
field sqrsum 232981504
attr interpolationmode none
attr recordingmode histogram
attr source packetLength(packetPushStarted)
attr title "incoming packet lengths"
attr unit b
bin	-inf	0
bin	312	0
bin	313	0
bin	314	0
bin	315	0
bin	316	0
bin	317	0
bin	318	0
bin	319	0
bin	320	2274
bin	321	0
bin	322	0
bin	323	0
bin	324	0
bin	325	0
bin	326	0
bin	327	0
bin	328	0
bin	329	0
bin	330	0
bin	331	0
bin	332	0
bin	333	0
bin	334	0
bin	335	0
bin	336	0
bin	337	0
bin	338	0
bin	339	0
bin	340	0
bin	341	0
bin	342	0
bin	343	0
bin	344	0
bin	345	0
bin	346	0
bin	347	0
bin	348	0
bin	349	0
bin	350	0
bin	351	0
bin	352	1
bin	353	0
bin	354	0
bin	355	0
bin	356	0
bin	357	0
bin	358	0
bin	359	0
bin	360	0
scalar Lab661.router2.ppp[0].queue droppedPacketsQueueOverflow:count 0
attr interpolationmode none
attr recordingmode count
attr source packetDropReasonIsQueueOverflow(packetDropped)
attr title "dropped packets: queue overflow, count"
attr unit pk
scalar Lab661.router2.ppp[0].queue droppedPacketLengthsQueueOverflow:sum 0
attr interpolationmode none
attr recordingmode sum
attr source packetLength(packetDropReasonIsQueueOverflow(packetDropped))
attr title "dropped packet lengths: queue overflow, sum"
attr unit b
par Lab661.router2.ppp[0].ppp typename "\"inet.linklayer.ppp.Ppp\""
par Lab661.router2.ppp[0].ppp interfaceTableModule "\"Lab661.router2.interfaceTable\""
par Lab661.router2.ppp[0].ppp displayStringTextFormat "\"rate: %b\\nsent: %s, rcvd: %r\\nqueue: %q, drop: %d\""
par Lab661.router2.ppp[0].ppp sendRawBytes false
par Lab661.router2.ppp[0].ppp mtu 4470B
attr unit B
par Lab661.router2.ppp[0].ppp stopOperationExtraTime -1s
attr unit s
par Lab661.router2.ppp[0].ppp stopOperationTimeout 2s
attr unit s
scalar Lab661.router2.ppp[0].ppp transmissionState:timeavg 0.001710864
attr interpolationmode sample-hold
attr recordingmode timeavg
attr source transmissionStateChanged
attr title "tx state, timeavg"
scalar Lab661.router2.ppp[0].ppp rxPkOk:count 2307
attr interpolationmode none
attr recordingmode count
attr source rxPkOk
attr title "packets received OK, count"
scalar Lab661.router2.ppp[0].ppp rxPkOk:sum(packetBytes) 3473733
attr interpolationmode none
attr recordingmode sum(packetBytes)
attr source rxPkOk
attr title "packets received OK, sum(packetBytes)"
scalar Lab661.router2.ppp[0].ppp txPk:count 2275
attr interpolationmode none
attr recordingmode count
attr source packetSentToLower
attr title "packets transmitted, count"
scalar Lab661.router2.ppp[0].ppp txPk:sum(packetBytes) 106929
attr interpolationmode none
attr recordingmode sum(packetBytes)
attr source packetSentToLower
attr title "packets transmitted, sum(packetBytes)"
scalar Lab661.router2.ppp[0].ppp rcvdPkFromHl:count 2275
attr interpolationmode none
attr recordingmode count
attr source packetReceivedFromUpper
attr title "packets received from higher layer, count"
scalar Lab661.router2.ppp[0].ppp rcvdPkFromHl:sum(packetBytes) 91004
attr interpolationmode none
attr recordingmode sum(packetBytes)
attr source packetReceivedFromUpper
attr title "packets received from higher layer, sum(packetBytes)"
scalar Lab661.router2.ppp[0].ppp passedUpPk:count 2307
attr interpolationmode none
attr recordingmode count
attr source packetSentToUpper
attr title "packets passed to higher layer, count"
scalar Lab661.router2.ppp[0].ppp passedUpPk:sum(packetBytes) 3457584
attr interpolationmode none
attr recordingmode sum(packetBytes)
attr source packetSentToUpper
attr title "packets passed to higher layer, sum(packetBytes)"
scalar Lab661.router2.ppp[0].ppp packetDropIncorrectlyReceived:count 0
attr interpolationmode none
attr recordingmode count
attr source packetDropReasonIsIncorrectlyReceived(packetDropped)
attr title "packet drop: incorrectly received, count"
scalar Lab661.router2.ppp[0].ppp packetDropIncorrectlyReceived:sum(packetBytes) 0
attr interpolationmode none
attr recordingmode sum(packetBytes)
attr source packetDropReasonIsIncorrectlyReceived(packetDropped)
attr title "packet drop: incorrectly received, sum(packetBytes)"
scalar Lab661.router2.ppp[0].ppp packetDropInterfaceDown:count 0
attr interpolationmode none
attr recordingmode count
attr source packetDropReasonIsInterfaceDown(packetDropped)
attr title "packet drop: interface down, count"
scalar Lab661.router2.ppp[0].ppp packetDropInterfaceDown:sum(packetBytes) 0
attr interpolationmode none
attr recordingmode sum(packetBytes)
attr source packetDropReasonIsInterfaceDown(packetDropped)
attr title "packet drop: interface down, sum(packetBytes)"
par Lab661.router2.ppp[0] typename "\"inet.linklayer.ppp.PppInterface\""
par Lab661.router2.ppp[0] displayStringTextFormat "\"%a (%i)\\n%m\""
par Lab661.router2.ppp[0] recordPcap false
par Lab661.router2.ppp[0] numPcapRecorders 0
par Lab661.router2.ppp[0] interfaceTableModule "\"Lab661.router2.interfaceTable\""
scalar Lab661.router2.ppp[0] packetDropInterfaceDown:count 0
attr interpolationmode none
attr recordingmode count
attr source packetDropReasonIsInterfaceDown(packetDropped)
attr title "packet drops: interface down, count"
scalar Lab661.router2.ppp[0] packetDropInterfaceDown:sum(packetBytes) 0
attr interpolationmode none
attr recordingmode sum(packetBytes)
attr source packetDropReasonIsInterfaceDown(packetDropped)
attr title "packet drops: interface down, sum(packetBytes)"
scalar Lab661.router2.ppp[0] packetDropNoCarrier:count 0
attr interpolationmode none
attr recordingmode count
attr source packetDropReasonIsNoCarrier(packetDropped)
attr title "packet drops: no carrier, count"
scalar Lab661.router2.ppp[0] packetDropNoCarrier:sum(packetBytes) 0
attr interpolationmode none
attr recordingmode sum(packetBytes)
attr source packetDropReasonIsNoCarrier(packetDropped)
attr title "packet drops: no carrier, sum(packetBytes)"
par Lab661.router2.ppp[1].phys$i.channel typename "\"ned.IdealChannel\""
par Lab661.router2.ppp[1].ppp.phys$o.channel typename "\"ned.IdealChannel\""
par Lab661.router2.ppp[1].ppp.upperLayerOut.channel typename "\"ned.IdealChannel\""
par Lab661.router2.ppp[1].upperLayerIn.channel typename "\"ned.IdealChannel\""
par Lab661.router2.ppp[1].queue typename "\"inet.queueing.queue.DropTailQueue\""
par Lab661.router2.ppp[1].queue displayStringTextFormat "\"contains %p pk (%l) pushed %u\\npulled %o removed %r dropped %d\""
par Lab661.router2.ppp[1].queue packetCapacity 5
par Lab661.router2.ppp[1].queue dataCapacity -1b
attr unit b
par Lab661.router2.ppp[1].queue dropperClass "\"inet::queueing::PacketAtCollectionEndDropper\""
par Lab661.router2.ppp[1].queue comparatorClass "\"\""
par Lab661.router2.ppp[1].queue bufferModule "\"\""
scalar Lab661.router2.ppp[1].queue queueLength:last 0
attr autoWarmupFilter false
attr interpolationmode sample-hold
attr recordingmode last
attr source "warmup(atomic(constant0(packetPushEnded) + count(packetPushStarted) - count(packetPulled) - count(packetRemoved) - count(packetDropped)))"
attr title "queue length, last"
attr unit pk
scalar Lab661.router2.ppp[1].queue queueLength:max 0
attr autoWarmupFilter false
attr interpolationmode sample-hold
attr recordingmode max
attr source "warmup(atomic(constant0(packetPushEnded) + count(packetPushStarted) - count(packetPulled) - count(packetRemoved) - count(packetDropped)))"
attr title "queue length, max"
attr unit pk
scalar Lab661.router2.ppp[1].queue queueLength:timeavg 0
attr autoWarmupFilter false
attr interpolationmode sample-hold
attr recordingmode timeavg
attr source "warmup(atomic(constant0(packetPushEnded) + count(packetPushStarted) - count(packetPulled) - count(packetRemoved) - count(packetDropped)))"
attr title "queue length, timeavg"
attr unit pk
scalar Lab661.router2.ppp[1].queue queueBitLength:last 0
attr autoWarmupFilter false
attr interpolationmode sample-hold
attr recordingmode last
attr source "warmup(atomic(constant0(packetPushEnded) + sum(packetLength(packetPushStarted)) - sum(packetLength(packetPulled)) - sum(packetLength(packetRemoved)) - sum(packetLength(packetDropped))))"
attr title "queue bit length, last"
attr unit b
scalar Lab661.router2.ppp[1].queue queueBitLength:max 0
attr autoWarmupFilter false
attr interpolationmode sample-hold
attr recordingmode max
attr source "warmup(atomic(constant0(packetPushEnded) + sum(packetLength(packetPushStarted)) - sum(packetLength(packetPulled)) - sum(packetLength(packetRemoved)) - sum(packetLength(packetDropped))))"
attr title "queue bit length, max"
attr unit b
scalar Lab661.router2.ppp[1].queue queueBitLength:timeavg 0
attr autoWarmupFilter false
attr interpolationmode sample-hold
attr recordingmode timeavg
attr source "warmup(atomic(constant0(packetPushEnded) + sum(packetLength(packetPushStarted)) - sum(packetLength(packetPulled)) - sum(packetLength(packetRemoved)) - sum(packetLength(packetDropped))))"
attr title "queue bit length, timeavg"
attr unit b
statistic Lab661.router2.ppp[1].queue queueingTime:histogram
field count 3582
field mean 0
field stddev 0
field min 0
field max 0
field sum 0
field sqrsum 0
attr interpolationmode none
attr recordingmode histogram
attr source queueingTime(packetPulled)
attr title "queueing times"
attr unit s
bin	-inf	0
bin	-0.5	0
bin	-0.48	0
bin	-0.46	0
bin	-0.44	0
bin	-0.42	0
bin	-0.4	0
bin	-0.38	0
bin	-0.36	0
bin	-0.34	0
bin	-0.32	0
bin	-0.3	0
bin	-0.28	0
bin	-0.26	0
bin	-0.24	0
bin	-0.22	0
bin	-0.2	0
bin	-0.18	0
bin	-0.16	0
bin	-0.14	0
bin	-0.12	0
bin	-0.1	0
bin	-0.08	0
bin	-0.06	0
bin	-0.04	0
bin	-0.02	0
bin	0	3582
bin	0.02	0
bin	0.04	0
bin	0.06	0
bin	0.08	0
bin	0.1	0
bin	0.12	0
bin	0.14	0
bin	0.16	0
bin	0.18	0
bin	0.2	0
bin	0.22	0
bin	0.24	0
bin	0.26	0
bin	0.28	0
bin	0.3	0
bin	0.32	0
bin	0.34	0
bin	0.36	0
bin	0.38	0
bin	0.4	0
bin	0.42	0
bin	0.44	0
bin	0.46	0
bin	0.48	0
bin	0.5	0
scalar Lab661.router2.ppp[1].queue outgoingPackets:count 3582
attr recordingmode count
attr source packetPulled
attr title "outgoing packets, count"
attr unit pk
scalar Lab661.router2.ppp[1].queue outgoingPacketLengths:sum 1146304
attr interpolationmode none
attr recordingmode sum
attr source packetLength(packetPulled)
attr title "outgoing packet lengths, sum"
attr unit b
statistic Lab661.router2.ppp[1].queue outgoingPacketLengths:histogram
field count 3582
field mean 320.01786711334
field stddev 0.75603436798798
field min 320
field max 352
field sum 1146304
field sqrsum 366839808
attr interpolationmode none
attr recordingmode histogram
attr source packetLength(packetPulled)
attr title "outgoing packet lengths"
attr unit b
bin	-inf	0
bin	312	0
bin	313	0
bin	314	0
bin	315	0
bin	316	0
bin	317	0
bin	318	0
bin	319	0
bin	320	3580
bin	321	0
bin	322	0
bin	323	0
bin	324	0
bin	325	0
bin	326	0
bin	327	0
bin	328	0
bin	329	0
bin	330	0
bin	331	0
bin	332	0
bin	333	0
bin	334	0
bin	335	0
bin	336	0
bin	337	0
bin	338	0
bin	339	0
bin	340	0
bin	341	0
bin	342	0
bin	343	0
bin	344	0
bin	345	0
bin	346	0
bin	347	0
bin	348	0
bin	349	0
bin	350	0
bin	351	0
bin	352	2
bin	353	0
bin	354	0
bin	355	0
bin	356	0
bin	357	0
bin	358	0
bin	359	0
bin	360	0
statistic Lab661.router2.ppp[1].queue flowQueueingTime:histogram
field count 0
field mean -nan
field stddev nan
field min nan
field max nan
field sum 0
field sqrsum 0
attr interpolationmode none
attr recordingmode histogram
attr source queueingTime(demuxFlow(packetPulled))
attr title "flow queueing times"
attr unit s
bin	-inf	0
bin	0	0
bin	1	0
scalar Lab661.router2.ppp[1].queue incomingPackets:count 3582
attr recordingmode count
attr source packetPushStarted
attr title "incoming packets, count"
attr unit pk
scalar Lab661.router2.ppp[1].queue incomingPacketLengths:sum 1146304
attr interpolationmode none
attr recordingmode sum
attr source packetLength(packetPushStarted)
attr title "incoming packet lengths, sum"
attr unit b
statistic Lab661.router2.ppp[1].queue incomingPacketLengths:histogram
field count 3582
field mean 320.01786711334
field stddev 0.75603436798798
field min 320
field max 352
field sum 1146304
field sqrsum 366839808
attr interpolationmode none
attr recordingmode histogram
attr source packetLength(packetPushStarted)
attr title "incoming packet lengths"
attr unit b
bin	-inf	0
bin	312	0
bin	313	0
bin	314	0
bin	315	0
bin	316	0
bin	317	0
bin	318	0
bin	319	0
bin	320	3580
bin	321	0
bin	322	0
bin	323	0
bin	324	0
bin	325	0
bin	326	0
bin	327	0
bin	328	0
bin	329	0
bin	330	0
bin	331	0
bin	332	0
bin	333	0
bin	334	0
bin	335	0
bin	336	0
bin	337	0
bin	338	0
bin	339	0
bin	340	0
bin	341	0
bin	342	0
bin	343	0
bin	344	0
bin	345	0
bin	346	0
bin	347	0
bin	348	0
bin	349	0
bin	350	0
bin	351	0
bin	352	2
bin	353	0
bin	354	0
bin	355	0
bin	356	0
bin	357	0
bin	358	0
bin	359	0
bin	360	0
scalar Lab661.router2.ppp[1].queue droppedPacketsQueueOverflow:count 0
attr interpolationmode none
attr recordingmode count
attr source packetDropReasonIsQueueOverflow(packetDropped)
attr title "dropped packets: queue overflow, count"
attr unit pk
scalar Lab661.router2.ppp[1].queue droppedPacketLengthsQueueOverflow:sum 0
attr interpolationmode none
attr recordingmode sum
attr source packetLength(packetDropReasonIsQueueOverflow(packetDropped))
attr title "dropped packet lengths: queue overflow, sum"
attr unit b
par Lab661.router2.ppp[1].ppp typename "\"inet.linklayer.ppp.Ppp\""
par Lab661.router2.ppp[1].ppp interfaceTableModule "\"Lab661.router2.interfaceTable\""
par Lab661.router2.ppp[1].ppp displayStringTextFormat "\"rate: %b\\nsent: %s, rcvd: %r\\nqueue: %q, drop: %d\""
par Lab661.router2.ppp[1].ppp sendRawBytes false
par Lab661.router2.ppp[1].ppp mtu 4470B
attr unit B
par Lab661.router2.ppp[1].ppp stopOperationExtraTime -1s
attr unit s
par Lab661.router2.ppp[1].ppp stopOperationTimeout 2s
attr unit s
scalar Lab661.router2.ppp[1].ppp transmissionState:timeavg 0.02693792
attr interpolationmode sample-hold
attr recordingmode timeavg
attr source transmissionStateChanged
attr title "tx state, timeavg"
scalar Lab661.router2.ppp[1].ppp rxPkOk:count 3591
attr interpolationmode none
attr recordingmode count
attr source rxPkOk
attr title "packets received OK, count"
scalar Lab661.router2.ppp[1].ppp rxPkOk:sum(packetBytes) 5405805
attr interpolationmode none
attr recordingmode sum(packetBytes)
attr source rxPkOk
attr title "packets received OK, sum(packetBytes)"
scalar Lab661.router2.ppp[1].ppp txPk:count 3582
attr interpolationmode none
attr recordingmode count
attr source packetSentToLower
attr title "packets transmitted, count"
scalar Lab661.router2.ppp[1].ppp txPk:sum(packetBytes) 168362
attr interpolationmode none
attr recordingmode sum(packetBytes)
attr source packetSentToLower
attr title "packets transmitted, sum(packetBytes)"
scalar Lab661.router2.ppp[1].ppp rcvdPkFromHl:count 3582
attr interpolationmode none
attr recordingmode count
attr source packetReceivedFromUpper
attr title "packets received from higher layer, count"
scalar Lab661.router2.ppp[1].ppp rcvdPkFromHl:sum(packetBytes) 143288
attr interpolationmode none
attr recordingmode sum(packetBytes)
attr source packetReceivedFromUpper
attr title "packets received from higher layer, sum(packetBytes)"
scalar Lab661.router2.ppp[1].ppp passedUpPk:count 3591
attr interpolationmode none
attr recordingmode count
attr source packetSentToUpper
attr title "packets passed to higher layer, count"
scalar Lab661.router2.ppp[1].ppp passedUpPk:sum(packetBytes) 5380668
attr interpolationmode none
attr recordingmode sum(packetBytes)
attr source packetSentToUpper
attr title "packets passed to higher layer, sum(packetBytes)"
scalar Lab661.router2.ppp[1].ppp packetDropIncorrectlyReceived:count 0
attr interpolationmode none
attr recordingmode count
attr source packetDropReasonIsIncorrectlyReceived(packetDropped)
attr title "packet drop: incorrectly received, count"
scalar Lab661.router2.ppp[1].ppp packetDropIncorrectlyReceived:sum(packetBytes) 0
attr interpolationmode none
attr recordingmode sum(packetBytes)
attr source packetDropReasonIsIncorrectlyReceived(packetDropped)
attr title "packet drop: incorrectly received, sum(packetBytes)"
scalar Lab661.router2.ppp[1].ppp packetDropInterfaceDown:count 0
attr interpolationmode none
attr recordingmode count
attr source packetDropReasonIsInterfaceDown(packetDropped)
attr title "packet drop: interface down, count"
scalar Lab661.router2.ppp[1].ppp packetDropInterfaceDown:sum(packetBytes) 0
attr interpolationmode none
attr recordingmode sum(packetBytes)
attr source packetDropReasonIsInterfaceDown(packetDropped)
attr title "packet drop: interface down, sum(packetBytes)"
par Lab661.router2.ppp[1] typename "\"inet.linklayer.ppp.PppInterface\""
par Lab661.router2.ppp[1] displayStringTextFormat "\"%a (%i)\\n%m\""
par Lab661.router2.ppp[1] recordPcap false
par Lab661.router2.ppp[1] numPcapRecorders 0
par Lab661.router2.ppp[1] interfaceTableModule "\"Lab661.router2.interfaceTable\""
scalar Lab661.router2.ppp[1] packetDropInterfaceDown:count 0
attr interpolationmode none
attr recordingmode count
attr source packetDropReasonIsInterfaceDown(packetDropped)
attr title "packet drops: interface down, count"
scalar Lab661.router2.ppp[1] packetDropInterfaceDown:sum(packetBytes) 0
attr interpolationmode none
attr recordingmode sum(packetBytes)
attr source packetDropReasonIsInterfaceDown(packetDropped)
attr title "packet drops: interface down, sum(packetBytes)"
scalar Lab661.router2.ppp[1] packetDropNoCarrier:count 0
attr interpolationmode none
attr recordingmode count
attr source packetDropReasonIsNoCarrier(packetDropped)
attr title "packet drops: no carrier, count"
scalar Lab661.router2.ppp[1] packetDropNoCarrier:sum(packetBytes) 0
attr interpolationmode none
attr recordingmode sum(packetBytes)
attr source packetDropReasonIsNoCarrier(packetDropped)
attr title "packet drops: no carrier, sum(packetBytes)"
par Lab661.router2.ppp[2].phys$i.channel typename "\"ned.IdealChannel\""
par Lab661.router2.ppp[2].ppp.phys$o.channel typename "\"ned.IdealChannel\""
par Lab661.router2.ppp[2].ppp.upperLayerOut.channel typename "\"ned.IdealChannel\""
par Lab661.router2.ppp[2].upperLayerIn.channel typename "\"ned.IdealChannel\""
par Lab661.router2.ppp[2].queue typename "\"inet.queueing.queue.DropTailQueue\""
par Lab661.router2.ppp[2].queue displayStringTextFormat "\"contains %p pk (%l) pushed %u\\npulled %o removed %r dropped %d\""
par Lab661.router2.ppp[2].queue packetCapacity 5
par Lab661.router2.ppp[2].queue dataCapacity -1b
attr unit b
par Lab661.router2.ppp[2].queue dropperClass "\"inet::queueing::PacketAtCollectionEndDropper\""
par Lab661.router2.ppp[2].queue comparatorClass "\"\""
par Lab661.router2.ppp[2].queue bufferModule "\"\""
scalar Lab661.router2.ppp[2].queue queueLength:last 0
attr autoWarmupFilter false
attr interpolationmode sample-hold
attr recordingmode last
attr source "warmup(atomic(constant0(packetPushEnded) + count(packetPushStarted) - count(packetPulled) - count(packetRemoved) - count(packetDropped)))"
attr title "queue length, last"
attr unit pk
scalar Lab661.router2.ppp[2].queue queueLength:max 0
attr autoWarmupFilter false
attr interpolationmode sample-hold
attr recordingmode max
attr source "warmup(atomic(constant0(packetPushEnded) + count(packetPushStarted) - count(packetPulled) - count(packetRemoved) - count(packetDropped)))"
attr title "queue length, max"
attr unit pk
scalar Lab661.router2.ppp[2].queue queueLength:timeavg 0
attr autoWarmupFilter false
attr interpolationmode sample-hold
attr recordingmode timeavg
attr source "warmup(atomic(constant0(packetPushEnded) + count(packetPushStarted) - count(packetPulled) - count(packetRemoved) - count(packetDropped)))"
attr title "queue length, timeavg"
attr unit pk
scalar Lab661.router2.ppp[2].queue queueBitLength:last 0
attr autoWarmupFilter false
attr interpolationmode sample-hold
attr recordingmode last
attr source "warmup(atomic(constant0(packetPushEnded) + sum(packetLength(packetPushStarted)) - sum(packetLength(packetPulled)) - sum(packetLength(packetRemoved)) - sum(packetLength(packetDropped))))"
attr title "queue bit length, last"
attr unit b
scalar Lab661.router2.ppp[2].queue queueBitLength:max 0
attr autoWarmupFilter false
attr interpolationmode sample-hold
attr recordingmode max
attr source "warmup(atomic(constant0(packetPushEnded) + sum(packetLength(packetPushStarted)) - sum(packetLength(packetPulled)) - sum(packetLength(packetRemoved)) - sum(packetLength(packetDropped))))"
attr title "queue bit length, max"
attr unit b
scalar Lab661.router2.ppp[2].queue queueBitLength:timeavg 0
attr autoWarmupFilter false
attr interpolationmode sample-hold
attr recordingmode timeavg
attr source "warmup(atomic(constant0(packetPushEnded) + sum(packetLength(packetPushStarted)) - sum(packetLength(packetPulled)) - sum(packetLength(packetRemoved)) - sum(packetLength(packetDropped))))"
attr title "queue bit length, timeavg"
attr unit b
statistic Lab661.router2.ppp[2].queue queueingTime:histogram
field count 3591
field mean 0
field stddev 0
field min 0
field max 0
field sum 0
field sqrsum 0
attr interpolationmode none
attr recordingmode histogram
attr source queueingTime(packetPulled)
attr title "queueing times"
attr unit s
bin	-inf	0
bin	-0.5	0
bin	-0.48	0
bin	-0.46	0
bin	-0.44	0
bin	-0.42	0
bin	-0.4	0
bin	-0.38	0
bin	-0.36	0
bin	-0.34	0
bin	-0.32	0
bin	-0.3	0
bin	-0.28	0
bin	-0.26	0
bin	-0.24	0
bin	-0.22	0
bin	-0.2	0
bin	-0.18	0
bin	-0.16	0
bin	-0.14	0
bin	-0.12	0
bin	-0.1	0
bin	-0.08	0
bin	-0.06	0
bin	-0.04	0
bin	-0.02	0
bin	0	3591
bin	0.02	0
bin	0.04	0
bin	0.06	0
bin	0.08	0
bin	0.1	0
bin	0.12	0
bin	0.14	0
bin	0.16	0
bin	0.18	0
bin	0.2	0
bin	0.22	0
bin	0.24	0
bin	0.26	0
bin	0.28	0
bin	0.3	0
bin	0.32	0
bin	0.34	0
bin	0.36	0
bin	0.38	0
bin	0.4	0
bin	0.42	0
bin	0.44	0
bin	0.46	0
bin	0.48	0
bin	0.5	0
scalar Lab661.router2.ppp[2].queue outgoingPackets:count 3591
attr recordingmode count
attr source packetPulled
attr title "outgoing packets, count"
attr unit pk
scalar Lab661.router2.ppp[2].queue outgoingPacketLengths:sum 43045344
attr interpolationmode none
attr recordingmode sum
attr source packetLength(packetPulled)
attr title "outgoing packet lengths, sum"
attr unit b
statistic Lab661.router2.ppp[2].queue outgoingPacketLengths:histogram
field count 3591
field mean 11987.007518797
field stddev 389.12459096954
field min 320
field max 12000
field sum 43045344
field sqrsum 516528452608
attr interpolationmode none
attr recordingmode histogram
attr source packetLength(packetPulled)
attr title "outgoing packet lengths"
attr unit b
bin	-inf	0
bin	0	0
bin	200	4
bin	400	0
bin	600	0
bin	800	0
bin	1000	0
bin	1200	0
bin	1400	0
bin	1600	0
bin	1800	0
bin	2000	0
bin	2200	0
bin	2400	0
bin	2600	0
bin	2800	0
bin	3000	0
bin	3200	0
bin	3400	0
bin	3600	0
bin	3800	0
bin	4000	0
bin	4200	0
bin	4400	0
bin	4600	0
bin	4800	0
bin	5000	0
bin	5200	0
bin	5400	0
bin	5600	0
bin	5800	0
bin	6000	0
bin	6200	0
bin	6400	0
bin	6600	0
bin	6800	0
bin	7000	0
bin	7200	0
bin	7400	0
bin	7600	0
bin	7800	0
bin	8000	0
bin	8200	0
bin	8400	0
bin	8600	0
bin	8800	0
bin	9000	0
bin	9200	0
bin	9400	0
bin	9600	0
bin	9800	0
bin	10000	0
bin	10200	0
bin	10400	0
bin	10600	0
bin	10800	0
bin	11000	0
bin	11200	0
bin	11400	0
bin	11600	0
bin	11800	0
bin	12000	3587
bin	12200	0
bin	12400	0
bin	12600	0
bin	12800	0
bin	13000	0
bin	13200	0
bin	13400	0
bin	13600	0
bin	13800	0
bin	14000	0
bin	14200	0
bin	14400	0
bin	14600	0
bin	14800	0
bin	15000	0
statistic Lab661.router2.ppp[2].queue flowQueueingTime:histogram
field count 0
field mean -nan
field stddev nan
field min nan
field max nan
field sum 0
field sqrsum 0
attr interpolationmode none
attr recordingmode histogram
attr source queueingTime(demuxFlow(packetPulled))
attr title "flow queueing times"
attr unit s
bin	-inf	0
bin	0	0
bin	1	0
scalar Lab661.router2.ppp[2].queue incomingPackets:count 3591
attr recordingmode count
attr source packetPushStarted
attr title "incoming packets, count"
attr unit pk
scalar Lab661.router2.ppp[2].queue incomingPacketLengths:sum 43045344
attr interpolationmode none
attr recordingmode sum
attr source packetLength(packetPushStarted)
attr title "incoming packet lengths, sum"
attr unit b
statistic Lab661.router2.ppp[2].queue incomingPacketLengths:histogram
field count 3591
field mean 11987.007518797
field stddev 389.12459096954
field min 320
field max 12000
field sum 43045344
field sqrsum 516528452608
attr interpolationmode none
attr recordingmode histogram
attr source packetLength(packetPushStarted)
attr title "incoming packet lengths"
attr unit b
bin	-inf	0
bin	0	0
bin	200	4
bin	400	0
bin	600	0
bin	800	0
bin	1000	0
bin	1200	0
bin	1400	0
bin	1600	0
bin	1800	0
bin	2000	0
bin	2200	0
bin	2400	0
bin	2600	0
bin	2800	0
bin	3000	0
bin	3200	0
bin	3400	0
bin	3600	0
bin	3800	0
bin	4000	0
bin	4200	0
bin	4400	0
bin	4600	0
bin	4800	0
bin	5000	0
bin	5200	0
bin	5400	0
bin	5600	0
bin	5800	0
bin	6000	0
bin	6200	0
bin	6400	0
bin	6600	0
bin	6800	0
bin	7000	0
bin	7200	0
bin	7400	0
bin	7600	0
bin	7800	0
bin	8000	0
bin	8200	0
bin	8400	0
bin	8600	0
bin	8800	0
bin	9000	0
bin	9200	0
bin	9400	0
bin	9600	0
bin	9800	0
bin	10000	0
bin	10200	0
bin	10400	0
bin	10600	0
bin	10800	0
bin	11000	0
bin	11200	0
bin	11400	0
bin	11600	0
bin	11800	0
bin	12000	3587
bin	12200	0
bin	12400	0
bin	12600	0
bin	12800	0
bin	13000	0
bin	13200	0
bin	13400	0
bin	13600	0
bin	13800	0
bin	14000	0
bin	14200	0
bin	14400	0
bin	14600	0
bin	14800	0
bin	15000	0
scalar Lab661.router2.ppp[2].queue droppedPacketsQueueOverflow:count 0
attr interpolationmode none
attr recordingmode count
attr source packetDropReasonIsQueueOverflow(packetDropped)
attr title "dropped packets: queue overflow, count"
attr unit pk
scalar Lab661.router2.ppp[2].queue droppedPacketLengthsQueueOverflow:sum 0
attr interpolationmode none
attr recordingmode sum
attr source packetLength(packetDropReasonIsQueueOverflow(packetDropped))
attr title "dropped packet lengths: queue overflow, sum"
attr unit b
par Lab661.router2.ppp[2].ppp typename "\"inet.linklayer.ppp.Ppp\""
par Lab661.router2.ppp[2].ppp interfaceTableModule "\"Lab661.router2.interfaceTable\""
par Lab661.router2.ppp[2].ppp displayStringTextFormat "\"rate: %b\\nsent: %s, rcvd: %r\\nqueue: %q, drop: %d\""
par Lab661.router2.ppp[2].ppp sendRawBytes false
par Lab661.router2.ppp[2].ppp mtu 4470B
attr unit B
par Lab661.router2.ppp[2].ppp stopOperationExtraTime -1s
attr unit s
par Lab661.router2.ppp[2].ppp stopOperationTimeout 2s
attr unit s
scalar Lab661.router2.ppp[2].ppp transmissionState:timeavg 0.86489376000005
attr interpolationmode sample-hold
attr recordingmode timeavg
attr source transmissionStateChanged
attr title "tx state, timeavg"
scalar Lab661.router2.ppp[2].ppp rxPkOk:count 3582
attr interpolationmode none
attr recordingmode count
attr source rxPkOk
attr title "packets received OK, count"
scalar Lab661.router2.ppp[2].ppp rxPkOk:sum(packetBytes) 168362
attr interpolationmode none
attr recordingmode sum(packetBytes)
attr source rxPkOk
attr title "packets received OK, sum(packetBytes)"
scalar Lab661.router2.ppp[2].ppp txPk:count 3591
attr interpolationmode none
attr recordingmode count
attr source packetSentToLower
attr title "packets transmitted, count"
scalar Lab661.router2.ppp[2].ppp txPk:sum(packetBytes) 5405805
attr interpolationmode none
attr recordingmode sum(packetBytes)
attr source packetSentToLower
attr title "packets transmitted, sum(packetBytes)"
scalar Lab661.router2.ppp[2].ppp rcvdPkFromHl:count 3591
attr interpolationmode none
attr recordingmode count
attr source packetReceivedFromUpper
attr title "packets received from higher layer, count"
scalar Lab661.router2.ppp[2].ppp rcvdPkFromHl:sum(packetBytes) 5380668
attr interpolationmode none
attr recordingmode sum(packetBytes)
attr source packetReceivedFromUpper
attr title "packets received from higher layer, sum(packetBytes)"
scalar Lab661.router2.ppp[2].ppp passedUpPk:count 3582
attr interpolationmode none
attr recordingmode count
attr source packetSentToUpper
attr title "packets passed to higher layer, count"
scalar Lab661.router2.ppp[2].ppp passedUpPk:sum(packetBytes) 143288
attr interpolationmode none
attr recordingmode sum(packetBytes)
attr source packetSentToUpper
attr title "packets passed to higher layer, sum(packetBytes)"
scalar Lab661.router2.ppp[2].ppp packetDropIncorrectlyReceived:count 0
attr interpolationmode none
attr recordingmode count
attr source packetDropReasonIsIncorrectlyReceived(packetDropped)
attr title "packet drop: incorrectly received, count"
scalar Lab661.router2.ppp[2].ppp packetDropIncorrectlyReceived:sum(packetBytes) 0
attr interpolationmode none
attr recordingmode sum(packetBytes)
attr source packetDropReasonIsIncorrectlyReceived(packetDropped)
attr title "packet drop: incorrectly received, sum(packetBytes)"
scalar Lab661.router2.ppp[2].ppp packetDropInterfaceDown:count 0
attr interpolationmode none
attr recordingmode count
attr source packetDropReasonIsInterfaceDown(packetDropped)
attr title "packet drop: interface down, count"
scalar Lab661.router2.ppp[2].ppp packetDropInterfaceDown:sum(packetBytes) 0
attr interpolationmode none
attr recordingmode sum(packetBytes)
attr source packetDropReasonIsInterfaceDown(packetDropped)
attr title "packet drop: interface down, sum(packetBytes)"
par Lab661.router2.ppp[2] typename "\"inet.linklayer.ppp.PppInterface\""
par Lab661.router2.ppp[2] displayStringTextFormat "\"%a (%i)\\n%m\""
par Lab661.router2.ppp[2] recordPcap false
par Lab661.router2.ppp[2] numPcapRecorders 0
par Lab661.router2.ppp[2] interfaceTableModule "\"Lab661.router2.interfaceTable\""
scalar Lab661.router2.ppp[2] packetDropInterfaceDown:count 0
attr interpolationmode none
attr recordingmode count
attr source packetDropReasonIsInterfaceDown(packetDropped)
attr title "packet drops: interface down, count"
scalar Lab661.router2.ppp[2] packetDropInterfaceDown:sum(packetBytes) 0
attr interpolationmode none
attr recordingmode sum(packetBytes)
attr source packetDropReasonIsInterfaceDown(packetDropped)
attr title "packet drops: interface down, sum(packetBytes)"
scalar Lab661.router2.ppp[2] packetDropNoCarrier:count 0
attr interpolationmode none
attr recordingmode count
attr source packetDropReasonIsNoCarrier(packetDropped)
attr title "packet drops: no carrier, count"
scalar Lab661.router2.ppp[2] packetDropNoCarrier:sum(packetBytes) 0
attr interpolationmode none
attr recordingmode sum(packetBytes)
attr source packetDropReasonIsNoCarrier(packetDropped)
attr title "packet drops: no carrier, sum(packetBytes)"
par Lab661.router2.ppp[3].phys$i.channel typename "\"ned.IdealChannel\""
par Lab661.router2.ppp[3].ppp.phys$o.channel typename "\"ned.IdealChannel\""
par Lab661.router2.ppp[3].ppp.upperLayerOut.channel typename "\"ned.IdealChannel\""
par Lab661.router2.ppp[3].upperLayerIn.channel typename "\"ned.IdealChannel\""
par Lab661.router2.ppp[3].queue typename "\"inet.queueing.queue.DropTailQueue\""
par Lab661.router2.ppp[3].queue displayStringTextFormat "\"contains %p pk (%l) pushed %u\\npulled %o removed %r dropped %d\""
par Lab661.router2.ppp[3].queue packetCapacity 5
par Lab661.router2.ppp[3].queue dataCapacity -1b
attr unit b
par Lab661.router2.ppp[3].queue dropperClass "\"inet::queueing::PacketAtCollectionEndDropper\""
par Lab661.router2.ppp[3].queue comparatorClass "\"\""
par Lab661.router2.ppp[3].queue bufferModule "\"\""
scalar Lab661.router2.ppp[3].queue queueLength:last 0
attr autoWarmupFilter false
attr interpolationmode sample-hold
attr recordingmode last
attr source "warmup(atomic(constant0(packetPushEnded) + count(packetPushStarted) - count(packetPulled) - count(packetRemoved) - count(packetDropped)))"
attr title "queue length, last"
attr unit pk
scalar Lab661.router2.ppp[3].queue queueLength:max 0
attr autoWarmupFilter false
attr interpolationmode sample-hold
attr recordingmode max
attr source "warmup(atomic(constant0(packetPushEnded) + count(packetPushStarted) - count(packetPulled) - count(packetRemoved) - count(packetDropped)))"
attr title "queue length, max"
attr unit pk
scalar Lab661.router2.ppp[3].queue queueLength:timeavg 0
attr autoWarmupFilter false
attr interpolationmode sample-hold
attr recordingmode timeavg
attr source "warmup(atomic(constant0(packetPushEnded) + count(packetPushStarted) - count(packetPulled) - count(packetRemoved) - count(packetDropped)))"
attr title "queue length, timeavg"
attr unit pk
scalar Lab661.router2.ppp[3].queue queueBitLength:last 0
attr autoWarmupFilter false
attr interpolationmode sample-hold
attr recordingmode last
attr source "warmup(atomic(constant0(packetPushEnded) + sum(packetLength(packetPushStarted)) - sum(packetLength(packetPulled)) - sum(packetLength(packetRemoved)) - sum(packetLength(packetDropped))))"
attr title "queue bit length, last"
attr unit b
scalar Lab661.router2.ppp[3].queue queueBitLength:max 0
attr autoWarmupFilter false
attr interpolationmode sample-hold
attr recordingmode max
attr source "warmup(atomic(constant0(packetPushEnded) + sum(packetLength(packetPushStarted)) - sum(packetLength(packetPulled)) - sum(packetLength(packetRemoved)) - sum(packetLength(packetDropped))))"
attr title "queue bit length, max"
attr unit b
scalar Lab661.router2.ppp[3].queue queueBitLength:timeavg 0
attr autoWarmupFilter false
attr interpolationmode sample-hold
attr recordingmode timeavg
attr source "warmup(atomic(constant0(packetPushEnded) + sum(packetLength(packetPushStarted)) - sum(packetLength(packetPulled)) - sum(packetLength(packetRemoved)) - sum(packetLength(packetDropped))))"
attr title "queue bit length, timeavg"
attr unit b
statistic Lab661.router2.ppp[3].queue queueingTime:histogram
field count 0
field mean -nan
field stddev nan
field min nan
field max nan
field sum 0
field sqrsum 0
attr interpolationmode none
attr recordingmode histogram
attr source queueingTime(packetPulled)
attr title "queueing times"
attr unit s
bin	-inf	0
bin	0	0
bin	1	0
scalar Lab661.router2.ppp[3].queue outgoingPackets:count 0
attr recordingmode count
attr source packetPulled
attr title "outgoing packets, count"
attr unit pk
scalar Lab661.router2.ppp[3].queue outgoingPacketLengths:sum 0
attr interpolationmode none
attr recordingmode sum
attr source packetLength(packetPulled)
attr title "outgoing packet lengths, sum"
attr unit b
statistic Lab661.router2.ppp[3].queue outgoingPacketLengths:histogram
field count 0
field mean -nan
field stddev nan
field min nan
field max nan
field sum 0
field sqrsum 0
attr interpolationmode none
attr recordingmode histogram
attr source packetLength(packetPulled)
attr title "outgoing packet lengths"
attr unit b
bin	-inf	0
bin	0	0
bin	1	0
statistic Lab661.router2.ppp[3].queue flowQueueingTime:histogram
field count 0
field mean -nan
field stddev nan
field min nan
field max nan
field sum 0
field sqrsum 0
attr interpolationmode none
attr recordingmode histogram
attr source queueingTime(demuxFlow(packetPulled))
attr title "flow queueing times"
attr unit s
bin	-inf	0
bin	0	0
bin	1	0
scalar Lab661.router2.ppp[3].queue incomingPackets:count 0
attr recordingmode count
attr source packetPushStarted
attr title "incoming packets, count"
attr unit pk
scalar Lab661.router2.ppp[3].queue incomingPacketLengths:sum 0
attr interpolationmode none
attr recordingmode sum
attr source packetLength(packetPushStarted)
attr title "incoming packet lengths, sum"
attr unit b
statistic Lab661.router2.ppp[3].queue incomingPacketLengths:histogram
field count 0
field mean -nan
field stddev nan
field min nan
field max nan
field sum 0
field sqrsum 0
attr interpolationmode none
attr recordingmode histogram
attr source packetLength(packetPushStarted)
attr title "incoming packet lengths"
attr unit b
bin	-inf	0
bin	0	0
bin	1	0
scalar Lab661.router2.ppp[3].queue droppedPacketsQueueOverflow:count 0
attr interpolationmode none
attr recordingmode count
attr source packetDropReasonIsQueueOverflow(packetDropped)
attr title "dropped packets: queue overflow, count"
attr unit pk
scalar Lab661.router2.ppp[3].queue droppedPacketLengthsQueueOverflow:sum 0
attr interpolationmode none
attr recordingmode sum
attr source packetLength(packetDropReasonIsQueueOverflow(packetDropped))
attr title "dropped packet lengths: queue overflow, sum"
attr unit b
par Lab661.router2.ppp[3].ppp typename "\"inet.linklayer.ppp.Ppp\""
par Lab661.router2.ppp[3].ppp interfaceTableModule "\"Lab661.router2.interfaceTable\""
par Lab661.router2.ppp[3].ppp displayStringTextFormat "\"rate: %b\\nsent: %s, rcvd: %r\\nqueue: %q, drop: %d\""
par Lab661.router2.ppp[3].ppp sendRawBytes false
par Lab661.router2.ppp[3].ppp mtu 4470B
attr unit B
par Lab661.router2.ppp[3].ppp stopOperationExtraTime -1s
attr unit s
par Lab661.router2.ppp[3].ppp stopOperationTimeout 2s
attr unit s
scalar Lab661.router2.ppp[3].ppp transmissionState:timeavg 0
attr interpolationmode sample-hold
attr recordingmode timeavg
attr source transmissionStateChanged
attr title "tx state, timeavg"
scalar Lab661.router2.ppp[3].ppp rxPkOk:count 0
attr interpolationmode none
attr recordingmode count
attr source rxPkOk
attr title "packets received OK, count"
scalar Lab661.router2.ppp[3].ppp rxPkOk:sum(packetBytes) 0
attr interpolationmode none
attr recordingmode sum(packetBytes)
attr source rxPkOk
attr title "packets received OK, sum(packetBytes)"
scalar Lab661.router2.ppp[3].ppp txPk:count 0
attr interpolationmode none
attr recordingmode count
attr source packetSentToLower
attr title "packets transmitted, count"
scalar Lab661.router2.ppp[3].ppp txPk:sum(packetBytes) 0
attr interpolationmode none
attr recordingmode sum(packetBytes)
attr source packetSentToLower
attr title "packets transmitted, sum(packetBytes)"
scalar Lab661.router2.ppp[3].ppp rcvdPkFromHl:count 0
attr interpolationmode none
attr recordingmode count
attr source packetReceivedFromUpper
attr title "packets received from higher layer, count"
scalar Lab661.router2.ppp[3].ppp rcvdPkFromHl:sum(packetBytes) 0
attr interpolationmode none
attr recordingmode sum(packetBytes)
attr source packetReceivedFromUpper
attr title "packets received from higher layer, sum(packetBytes)"
scalar Lab661.router2.ppp[3].ppp passedUpPk:count 0
attr interpolationmode none
attr recordingmode count
attr source packetSentToUpper
attr title "packets passed to higher layer, count"
scalar Lab661.router2.ppp[3].ppp passedUpPk:sum(packetBytes) 0
attr interpolationmode none
attr recordingmode sum(packetBytes)
attr source packetSentToUpper
attr title "packets passed to higher layer, sum(packetBytes)"
scalar Lab661.router2.ppp[3].ppp packetDropIncorrectlyReceived:count 0
attr interpolationmode none
attr recordingmode count
attr source packetDropReasonIsIncorrectlyReceived(packetDropped)
attr title "packet drop: incorrectly received, count"
scalar Lab661.router2.ppp[3].ppp packetDropIncorrectlyReceived:sum(packetBytes) 0
attr interpolationmode none
attr recordingmode sum(packetBytes)
attr source packetDropReasonIsIncorrectlyReceived(packetDropped)
attr title "packet drop: incorrectly received, sum(packetBytes)"
scalar Lab661.router2.ppp[3].ppp packetDropInterfaceDown:count 0
attr interpolationmode none
attr recordingmode count
attr source packetDropReasonIsInterfaceDown(packetDropped)
attr title "packet drop: interface down, count"
scalar Lab661.router2.ppp[3].ppp packetDropInterfaceDown:sum(packetBytes) 0
attr interpolationmode none
attr recordingmode sum(packetBytes)
attr source packetDropReasonIsInterfaceDown(packetDropped)
attr title "packet drop: interface down, sum(packetBytes)"
par Lab661.router2.ppp[3] typename "\"inet.linklayer.ppp.PppInterface\""
par Lab661.router2.ppp[3] displayStringTextFormat "\"%a (%i)\\n%m\""
par Lab661.router2.ppp[3] recordPcap false
par Lab661.router2.ppp[3] numPcapRecorders 0
par Lab661.router2.ppp[3] interfaceTableModule "\"Lab661.router2.interfaceTable\""
scalar Lab661.router2.ppp[3] packetDropInterfaceDown:count 0
attr interpolationmode none
attr recordingmode count
attr source packetDropReasonIsInterfaceDown(packetDropped)
attr title "packet drops: interface down, count"
scalar Lab661.router2.ppp[3] packetDropInterfaceDown:sum(packetBytes) 0
attr interpolationmode none
attr recordingmode sum(packetBytes)
attr source packetDropReasonIsInterfaceDown(packetDropped)
attr title "packet drops: interface down, sum(packetBytes)"
scalar Lab661.router2.ppp[3] packetDropNoCarrier:count 0
attr interpolationmode none
attr recordingmode count
attr source packetDropReasonIsNoCarrier(packetDropped)
attr title "packet drops: no carrier, count"
scalar Lab661.router2.ppp[3] packetDropNoCarrier:sum(packetBytes) 0
attr interpolationmode none
attr recordingmode sum(packetBytes)
attr source packetDropReasonIsNoCarrier(packetDropped)
attr title "packet drops: no carrier, sum(packetBytes)"
par Lab661.router2.ppp[4].phys$i.channel typename "\"ned.IdealChannel\""
par Lab661.router2.ppp[4].ppp.phys$o.channel typename "\"ned.IdealChannel\""
par Lab661.router2.ppp[4].ppp.upperLayerOut.channel typename "\"ned.IdealChannel\""
par Lab661.router2.ppp[4].upperLayerIn.channel typename "\"ned.IdealChannel\""
par Lab661.router2.ppp[4].queue typename "\"inet.queueing.queue.DropTailQueue\""
par Lab661.router2.ppp[4].queue displayStringTextFormat "\"contains %p pk (%l) pushed %u\\npulled %o removed %r dropped %d\""
par Lab661.router2.ppp[4].queue packetCapacity 5
par Lab661.router2.ppp[4].queue dataCapacity -1b
attr unit b
par Lab661.router2.ppp[4].queue dropperClass "\"inet::queueing::PacketAtCollectionEndDropper\""
par Lab661.router2.ppp[4].queue comparatorClass "\"\""
par Lab661.router2.ppp[4].queue bufferModule "\"\""
scalar Lab661.router2.ppp[4].queue queueLength:last 3
attr autoWarmupFilter false
attr interpolationmode sample-hold
attr recordingmode last
attr source "warmup(atomic(constant0(packetPushEnded) + count(packetPushStarted) - count(packetPulled) - count(packetRemoved) - count(packetDropped)))"
attr title "queue length, last"
attr unit pk
scalar Lab661.router2.ppp[4].queue queueLength:max 5
attr autoWarmupFilter false
attr interpolationmode sample-hold
attr recordingmode max
attr source "warmup(atomic(constant0(packetPushEnded) + count(packetPushStarted) - count(packetPulled) - count(packetRemoved) - count(packetDropped)))"
attr title "queue length, max"
attr unit pk
scalar Lab661.router2.ppp[4].queue queueLength:timeavg 1.0160589981896
attr autoWarmupFilter false
attr interpolationmode sample-hold
attr recordingmode timeavg
attr source "warmup(atomic(constant0(packetPushEnded) + count(packetPushStarted) - count(packetPulled) - count(packetRemoved) - count(packetDropped)))"
attr title "queue length, timeavg"
attr unit pk
scalar Lab661.router2.ppp[4].queue queueBitLength:last 36000
attr autoWarmupFilter false
attr interpolationmode sample-hold
attr recordingmode last
attr source "warmup(atomic(constant0(packetPushEnded) + sum(packetLength(packetPushStarted)) - sum(packetLength(packetPulled)) - sum(packetLength(packetRemoved)) - sum(packetLength(packetDropped))))"
attr title "queue bit length, last"
attr unit b
scalar Lab661.router2.ppp[4].queue queueBitLength:max 60000
attr autoWarmupFilter false
attr interpolationmode sample-hold
attr recordingmode max
attr source "warmup(atomic(constant0(packetPushEnded) + sum(packetLength(packetPushStarted)) - sum(packetLength(packetPulled)) - sum(packetLength(packetRemoved)) - sum(packetLength(packetDropped))))"
attr title "queue bit length, max"
attr unit b
scalar Lab661.router2.ppp[4].queue queueBitLength:timeavg 12192.707978276
attr autoWarmupFilter false
attr interpolationmode sample-hold
attr recordingmode timeavg
attr source "warmup(atomic(constant0(packetPushEnded) + sum(packetLength(packetPushStarted)) - sum(packetLength(packetPulled)) - sum(packetLength(packetRemoved)) - sum(packetLength(packetDropped))))"
attr title "queue bit length, timeavg"
attr unit b
statistic Lab661.router2.ppp[4].queue queueingTime:histogram
field count 2284
field mean 0.011107471103328
field stddev 0.010609243710261
field min 0
field max 0.03014
field sum 25.369464
field sqrsum 0.53875605523968
attr interpolationmode none
attr recordingmode histogram
attr source queueingTime(packetPulled)
attr title "queueing times"
attr unit s
bin	-inf	0
bin	0	704
bin	0.0005	0
bin	0.001	0
bin	0.0015	0
bin	0.002	0
bin	0.0025	0
bin	0.003	0
bin	0.0035	164
bin	0.004	0
bin	0.0045	0
bin	0.005	78
bin	0.0055	0
bin	0.006	206
bin	0.0065	0
bin	0.007	0
bin	0.0075	0
bin	0.008	0
bin	0.0085	0
bin	0.009	12
bin	0.0095	194
bin	0.01	0
bin	0.0105	3
bin	0.011	6
bin	0.0115	0
bin	0.012	3
bin	0.0125	0
bin	0.013	0
bin	0.0135	0
bin	0.014	0
bin	0.0145	0
bin	0.015	12
bin	0.0155	226
bin	0.016	1
bin	0.0165	0
bin	0.017	3
bin	0.0175	0
bin	0.018	3
bin	0.0185	0
bin	0.019	0
bin	0.0195	0
bin	0.02	0
bin	0.0205	0
bin	0.021	12
bin	0.0215	212
bin	0.022	0
bin	0.0225	0
bin	0.023	0
bin	0.0235	3
bin	0.024	2
bin	0.0245	0
bin	0.025	0
bin	0.0255	0
bin	0.026	0
bin	0.0265	0
bin	0.027	11
bin	0.0275	418
bin	0.028	0
bin	0.0285	0
bin	0.029	0
bin	0.0295	2
bin	0.03	9
bin	0.0305	0
bin	0.031	0
bin	0.0315	0
bin	0.032	0
bin	0.0325	0
bin	0.033	0
bin	0.0335	0
bin	0.034	0
bin	0.0345	0
bin	0.035	0
bin	0.0355	0
bin	0.036	0
bin	0.0365	0
bin	0.037	0
bin	0.0375	0
bin	0.038	0
scalar Lab661.router2.ppp[4].queue outgoingPackets:count 2284
attr recordingmode count
attr source packetPulled
attr title "outgoing packets, count"
attr unit pk
scalar Lab661.router2.ppp[4].queue outgoingPacketLengths:sum 27384672
attr interpolationmode none
attr recordingmode sum
attr source packetLength(packetPulled)
attr title "outgoing packet lengths, sum"
attr unit b
statistic Lab661.router2.ppp[4].queue outgoingPacketLengths:histogram
field count 2284
field mean 11989.786339755
field stddev 345.07995463583
field min 320
field max 12000
field sum 27384672
field sqrsum 328608226304
attr interpolationmode none
attr recordingmode histogram
attr source packetLength(packetPulled)
attr title "outgoing packet lengths"
attr unit b
bin	-inf	0
bin	0	0
bin	200	2
bin	400	0
bin	600	0
bin	800	0
bin	1000	0
bin	1200	0
bin	1400	0
bin	1600	0
bin	1800	0
bin	2000	0
bin	2200	0
bin	2400	0
bin	2600	0
bin	2800	0
bin	3000	0
bin	3200	0
bin	3400	0
bin	3600	0
bin	3800	0
bin	4000	0
bin	4200	0
bin	4400	0
bin	4600	0
bin	4800	0
bin	5000	0
bin	5200	0
bin	5400	0
bin	5600	0
bin	5800	0
bin	6000	0
bin	6200	0
bin	6400	0
bin	6600	0
bin	6800	0
bin	7000	0
bin	7200	0
bin	7400	0
bin	7600	0
bin	7800	0
bin	8000	0
bin	8200	0
bin	8400	0
bin	8600	0
bin	8800	0
bin	9000	0
bin	9200	0
bin	9400	0
bin	9600	0
bin	9800	0
bin	10000	0
bin	10200	0
bin	10400	0
bin	10600	0
bin	10800	0
bin	11000	0
bin	11200	0
bin	11400	0
bin	11600	0
bin	11800	0
bin	12000	2282
bin	12200	0
bin	12400	0
bin	12600	0
bin	12800	0
bin	13000	0
bin	13200	0
bin	13400	0
bin	13600	0
bin	13800	0
bin	14000	0
bin	14200	0
bin	14400	0
bin	14600	0
bin	14800	0
bin	15000	0
statistic Lab661.router2.ppp[4].queue flowQueueingTime:histogram
field count 0
field mean -nan
field stddev nan
field min nan
field max nan
field sum 0
field sqrsum 0
attr interpolationmode none
attr recordingmode histogram
attr source queueingTime(demuxFlow(packetPulled))
attr title "flow queueing times"
attr unit s
bin	-inf	0
bin	0	0
bin	1	0
scalar Lab661.router2.ppp[4].queue incomingPackets:count 2307
attr recordingmode count
attr source packetPushStarted
attr title "incoming packets, count"
attr unit pk
scalar Lab661.router2.ppp[4].queue incomingPacketLengths:sum 27660672
attr interpolationmode none
attr recordingmode sum
attr source packetLength(packetPushStarted)
attr title "incoming packet lengths, sum"
attr unit b
statistic Lab661.router2.ppp[4].queue incomingPacketLengths:histogram
field count 2307
field mean 11989.88816645
field stddev 343.35623162881
field min 320
field max 12000
field sum 27660672
field sqrsum 331920226304
attr interpolationmode none
attr recordingmode histogram
attr source packetLength(packetPushStarted)
attr title "incoming packet lengths"
attr unit b
bin	-inf	0
bin	0	0
bin	200	2
bin	400	0
bin	600	0
bin	800	0
bin	1000	0
bin	1200	0
bin	1400	0
bin	1600	0
bin	1800	0
bin	2000	0
bin	2200	0
bin	2400	0
bin	2600	0
bin	2800	0
bin	3000	0
bin	3200	0
bin	3400	0
bin	3600	0
bin	3800	0
bin	4000	0
bin	4200	0
bin	4400	0
bin	4600	0
bin	4800	0
bin	5000	0
bin	5200	0
bin	5400	0
bin	5600	0
bin	5800	0
bin	6000	0
bin	6200	0
bin	6400	0
bin	6600	0
bin	6800	0
bin	7000	0
bin	7200	0
bin	7400	0
bin	7600	0
bin	7800	0
bin	8000	0
bin	8200	0
bin	8400	0
bin	8600	0
bin	8800	0
bin	9000	0
bin	9200	0
bin	9400	0
bin	9600	0
bin	9800	0
bin	10000	0
bin	10200	0
bin	10400	0
bin	10600	0
bin	10800	0
bin	11000	0
bin	11200	0
bin	11400	0
bin	11600	0
bin	11800	0
bin	12000	2305
bin	12200	0
bin	12400	0
bin	12600	0
bin	12800	0
bin	13000	0
bin	13200	0
bin	13400	0
bin	13600	0
bin	13800	0
bin	14000	0
bin	14200	0
bin	14400	0
bin	14600	0
bin	14800	0
bin	15000	0
scalar Lab661.router2.ppp[4].queue droppedPacketsQueueOverflow:count 20
attr interpolationmode none
attr recordingmode count
attr source packetDropReasonIsQueueOverflow(packetDropped)
attr title "dropped packets: queue overflow, count"
attr unit pk
scalar Lab661.router2.ppp[4].queue droppedPacketLengthsQueueOverflow:sum 240000
attr interpolationmode none
attr recordingmode sum
attr source packetLength(packetDropReasonIsQueueOverflow(packetDropped))
attr title "dropped packet lengths: queue overflow, sum"
attr unit b
par Lab661.router2.ppp[4].ppp typename "\"inet.linklayer.ppp.Ppp\""
par Lab661.router2.ppp[4].ppp interfaceTableModule "\"Lab661.router2.interfaceTable\""
par Lab661.router2.ppp[4].ppp displayStringTextFormat "\"rate: %b\\nsent: %s, rcvd: %r\\nqueue: %q, drop: %d\""
par Lab661.router2.ppp[4].ppp sendRawBytes false
par Lab661.router2.ppp[4].ppp mtu 4470B
attr unit B
par Lab661.router2.ppp[4].ppp stopOperationExtraTime -1s
attr unit s
par Lab661.router2.ppp[4].ppp stopOperationTimeout 2s
attr unit s
scalar Lab661.router2.ppp[4].ppp transmissionState:timeavg 0.5500527967299
attr interpolationmode sample-hold
attr recordingmode timeavg
attr source transmissionStateChanged
attr title "tx state, timeavg"
scalar Lab661.router2.ppp[4].ppp rxPkOk:count 2275
attr interpolationmode none
attr recordingmode count
attr source rxPkOk
attr title "packets received OK, count"
scalar Lab661.router2.ppp[4].ppp rxPkOk:sum(packetBytes) 106929
attr interpolationmode none
attr recordingmode sum(packetBytes)
attr source rxPkOk
attr title "packets received OK, sum(packetBytes)"
scalar Lab661.router2.ppp[4].ppp txPk:count 2284
attr interpolationmode none
attr recordingmode count
attr source packetSentToLower
attr title "packets transmitted, count"
scalar Lab661.router2.ppp[4].ppp txPk:sum(packetBytes) 3439072
attr interpolationmode none
attr recordingmode sum(packetBytes)
attr source packetSentToLower
attr title "packets transmitted, sum(packetBytes)"
scalar Lab661.router2.ppp[4].ppp rcvdPkFromHl:count 2284
attr interpolationmode none
attr recordingmode count
attr source packetReceivedFromUpper
attr title "packets received from higher layer, count"
scalar Lab661.router2.ppp[4].ppp rcvdPkFromHl:sum(packetBytes) 3423084
attr interpolationmode none
attr recordingmode sum(packetBytes)
attr source packetReceivedFromUpper
attr title "packets received from higher layer, sum(packetBytes)"
scalar Lab661.router2.ppp[4].ppp passedUpPk:count 2275
attr interpolationmode none
attr recordingmode count
attr source packetSentToUpper
attr title "packets passed to higher layer, count"
scalar Lab661.router2.ppp[4].ppp passedUpPk:sum(packetBytes) 91004
attr interpolationmode none
attr recordingmode sum(packetBytes)
attr source packetSentToUpper
attr title "packets passed to higher layer, sum(packetBytes)"
scalar Lab661.router2.ppp[4].ppp packetDropIncorrectlyReceived:count 0
attr interpolationmode none
attr recordingmode count
attr source packetDropReasonIsIncorrectlyReceived(packetDropped)
attr title "packet drop: incorrectly received, count"
scalar Lab661.router2.ppp[4].ppp packetDropIncorrectlyReceived:sum(packetBytes) 0
attr interpolationmode none
attr recordingmode sum(packetBytes)
attr source packetDropReasonIsIncorrectlyReceived(packetDropped)
attr title "packet drop: incorrectly received, sum(packetBytes)"
scalar Lab661.router2.ppp[4].ppp packetDropInterfaceDown:count 0
attr interpolationmode none
attr recordingmode count
attr source packetDropReasonIsInterfaceDown(packetDropped)
attr title "packet drop: interface down, count"
scalar Lab661.router2.ppp[4].ppp packetDropInterfaceDown:sum(packetBytes) 0
attr interpolationmode none
attr recordingmode sum(packetBytes)
attr source packetDropReasonIsInterfaceDown(packetDropped)
attr title "packet drop: interface down, sum(packetBytes)"
par Lab661.router2.ppp[4] typename "\"inet.linklayer.ppp.PppInterface\""
par Lab661.router2.ppp[4] displayStringTextFormat "\"%a (%i)\\n%m\""
par Lab661.router2.ppp[4] recordPcap false
par Lab661.router2.ppp[4] numPcapRecorders 0
par Lab661.router2.ppp[4] interfaceTableModule "\"Lab661.router2.interfaceTable\""
scalar Lab661.router2.ppp[4] packetDropInterfaceDown:count 0
attr interpolationmode none
attr recordingmode count
attr source packetDropReasonIsInterfaceDown(packetDropped)
attr title "packet drops: interface down, count"
scalar Lab661.router2.ppp[4] packetDropInterfaceDown:sum(packetBytes) 0
attr interpolationmode none
attr recordingmode sum(packetBytes)
attr source packetDropReasonIsInterfaceDown(packetDropped)
attr title "packet drops: interface down, sum(packetBytes)"
scalar Lab661.router2.ppp[4] packetDropNoCarrier:count 0
attr interpolationmode none
attr recordingmode count
attr source packetDropReasonIsNoCarrier(packetDropped)
attr title "packet drops: no carrier, count"
scalar Lab661.router2.ppp[4] packetDropNoCarrier:sum(packetBytes) 0
attr interpolationmode none
attr recordingmode sum(packetBytes)
attr source packetDropReasonIsNoCarrier(packetDropped)
attr title "packet drops: no carrier, sum(packetBytes)"
par Lab661.router2.ipv4.transportIn.channel typename "\"ned.IdealChannel\""
par Lab661.router2.ipv4.up.out[0].channel typename "\"ned.IdealChannel\""
par Lab661.router2.ipv4.lp.out[2].channel typename "\"ned.IdealChannel\""
par Lab661.router2.ipv4.ifIn.channel typename "\"ned.IdealChannel\""
par Lab661.router2.ipv4.configurator typename "\"inet.networklayer.configurator.ipv4.Ipv4NodeConfigurator\""
par Lab661.router2.ipv4.configurator interfaceTableModule "\"Lab661.router2.interfaceTable\""
par Lab661.router2.ipv4.configurator routingTableModule "\"Lab661.router2.ipv4.routingTable\""
par Lab661.router2.ipv4.configurator networkConfiguratorModule "\"configurator\""
par Lab661.router2.ipv4.configurator configureRoutingTable true
par Lab661.router2.ipv4.routingTable typename "\"inet.networklayer.ipv4.Ipv4RoutingTable\""
par Lab661.router2.ipv4.routingTable interfaceTableModule "\"Lab661.router2.interfaceTable\""
par Lab661.router2.ipv4.routingTable routerId "\"auto\""
par Lab661.router2.ipv4.routingTable netmaskRoutes "\"*\""
par Lab661.router2.ipv4.routingTable forwarding true
par Lab661.router2.ipv4.routingTable multicastForwarding false
par Lab661.router2.ipv4.routingTable useAdminDist false
par Lab661.router2.ipv4.routingTable routingFile "\"\""
par Lab661.router2.ipv4.natTable typename "\"inet.networklayer.ipv4.Ipv4NatTable\""
par Lab661.router2.ipv4.natTable networkProtocolModule "\"^.ip\""
par Lab661.router2.ipv4.natTable config "<config/> at content:1"
par Lab661.router2.ipv4.up typename "\"inet.common.MessageDispatcher\""
par Lab661.router2.ipv4.up displayStringTextFormat "\"processed %p pk (%l)\""
par Lab661.router2.ipv4.up forwardServiceRegistration true
par Lab661.router2.ipv4.up forwardProtocolRegistration true
par Lab661.router2.ipv4.igmp typename "\"inet.networklayer.ipv4.Igmpv2\""
par Lab661.router2.ipv4.igmp interfaceTableModule "\"Lab661.router2.interfaceTable\""
par Lab661.router2.ipv4.igmp routingTableModule "\"Lab661.router2.ipv4.routingTable\""
par Lab661.router2.ipv4.igmp crcMode "\"declared\""
attr enum declared,computed
par Lab661.router2.ipv4.igmp enabled true
par Lab661.router2.ipv4.igmp robustnessVariable 2
par Lab661.router2.ipv4.igmp queryInterval 125s
attr unit s
par Lab661.router2.ipv4.igmp queryResponseInterval 10s
attr unit s
par Lab661.router2.ipv4.igmp groupMembershipInterval 260s
attr unit s
par Lab661.router2.ipv4.igmp otherQuerierPresentInterval 255s
attr unit s
par Lab661.router2.ipv4.igmp startupQueryInterval 31.25s
attr unit s
par Lab661.router2.ipv4.igmp startupQueryCount 2
par Lab661.router2.ipv4.igmp lastMemberQueryInterval 1s
attr unit s
par Lab661.router2.ipv4.igmp lastMemberQueryCount 2
par Lab661.router2.ipv4.igmp unsolicitedReportInterval 10s
attr unit s
par Lab661.router2.ipv4.icmp typename "\"inet.networklayer.ipv4.Icmp\""
par Lab661.router2.ipv4.icmp interfaceTableModule "\"Lab661.router2.interfaceTable\""
par Lab661.router2.ipv4.icmp routingTableModule "\"Lab661.router2.ipv4.routingTable\""
par Lab661.router2.ipv4.icmp crcMode "\"declared\""
attr enum declared,computed
attr mutable ""
par Lab661.router2.ipv4.icmp quoteLength 8B
attr mutable ""
attr unit B
par Lab661.router2.ipv4.mp typename "\"inet.common.MessageDispatcher\""
par Lab661.router2.ipv4.mp displayStringTextFormat "\"processed %p pk (%l)\""
par Lab661.router2.ipv4.mp forwardServiceRegistration true
par Lab661.router2.ipv4.mp forwardProtocolRegistration true
par Lab661.router2.ipv4.ip typename "\"inet.networklayer.ipv4.Ipv4\""
par Lab661.router2.ipv4.ip interfaceTableModule "\"Lab661.router2.interfaceTable\""
par Lab661.router2.ipv4.ip routingTableModule "\"Lab661.router2.ipv4.routingTable\""
par Lab661.router2.ipv4.ip arpModule "\"Lab661.router2.ipv4.arp\""
par Lab661.router2.ipv4.ip icmpModule "\"Lab661.router2.ipv4.icmp\""
par Lab661.router2.ipv4.ip crcMode "\"declared\""
attr enum declared,computed
par Lab661.router2.ipv4.ip timeToLive 32
par Lab661.router2.ipv4.ip multicastTimeToLive 32
par Lab661.router2.ipv4.ip fragmentTimeout 60s
attr unit s
par Lab661.router2.ipv4.ip limitedBroadcast false
par Lab661.router2.ipv4.ip directBroadcastInterfaces "\"\""
scalar Lab661.router2.ipv4.ip packetDropAddressResolutionFailed:count 0
attr interpolationmode none
attr recordingmode count
attr source packetDropReasonIsAddressResolutionFailed(packetDropped)
attr title "packet drop: address resolution failed, count"
scalar Lab661.router2.ipv4.ip packetDropAddressResolutionFailed:sum(packetBytes) 0
attr interpolationmode none
attr recordingmode sum(packetBytes)
attr source packetDropReasonIsAddressResolutionFailed(packetDropped)
attr title "packet drop: address resolution failed, sum(packetBytes)"
scalar Lab661.router2.ipv4.ip packetDropHopLimitReached:count 0
attr interpolationmode none
attr recordingmode count
attr source packetDropReasonIsHopLimitReached(packetDropped)
attr title "packet drop: hop limit reached, count"
scalar Lab661.router2.ipv4.ip packetDropHopLimitReached:sum(packetBytes) 0
attr interpolationmode none
attr recordingmode sum(packetBytes)
attr source packetDropReasonIsHopLimitReached(packetDropped)
attr title "packet drop: hop limit reached, sum(packetBytes)"
scalar Lab661.router2.ipv4.ip packetDropForwardingDisabled:count 0
attr interpolationmode none
attr recordingmode count
attr source packetDropReasonIsForwardingDisabled(packetDropped)
attr title "packet drop: forwarding disabled, count"
scalar Lab661.router2.ipv4.ip packetDropForwardingDisabled:sum(packetBytes) 0
attr interpolationmode none
attr recordingmode sum(packetBytes)
attr source packetDropReasonIsForwardingDisabled(packetDropped)
attr title "packet drop: forwarding disabled, sum(packetBytes)"
scalar Lab661.router2.ipv4.ip packetDropNoInterfaceFound:count 0
attr interpolationmode none
attr recordingmode count
attr source packetDropReasonIsNoInterfaceFound(packetDropped)
attr title "packet drop: no interface found, count"
scalar Lab661.router2.ipv4.ip packetDropNoInterfaceFound:sum(packetBytes) 0
attr interpolationmode none
attr recordingmode sum(packetBytes)
attr source packetDropReasonIsNoInterfaceFound(packetDropped)
attr title "packet drop: no interface found, sum(packetBytes)"
scalar Lab661.router2.ipv4.ip packetDropNoRouteFound:count 0
attr interpolationmode none
attr recordingmode count
attr source packetDropReasonIsNoRouteFound(packetDropped)
attr title "packet drop: no route found, count"
scalar Lab661.router2.ipv4.ip packetDropNoRouteFound:sum(packetBytes) 0
attr interpolationmode none
attr recordingmode sum(packetBytes)
attr source packetDropReasonIsNoRouteFound(packetDropped)
attr title "packet drop: no route found, sum(packetBytes)"
scalar Lab661.router2.ipv4.ip packetDropUndefined:count 0
attr interpolationmode none
attr recordingmode count
attr source packetDropReasonIsUndefined(packetDropped)
attr title "packet drop: undefined, count"
scalar Lab661.router2.ipv4.ip packetDropUndefined:sum(packetBytes) 0
attr interpolationmode none
attr recordingmode sum(packetBytes)
attr source packetDropReasonIsUndefined(packetDropped)
attr title "packet drop: undefined, sum(packetBytes)"
par Lab661.router2.ipv4.arp typename "\"inet.networklayer.arp.ipv4.Arp\""
par Lab661.router2.ipv4.arp interfaceTableModule "\"Lab661.router2.interfaceTable\""
par Lab661.router2.ipv4.arp routingTableModule "\"Lab661.router2.ipv4.routingTable\""
par Lab661.router2.ipv4.arp retryTimeout 1s
attr unit s
par Lab661.router2.ipv4.arp retryCount 3
par Lab661.router2.ipv4.arp cacheTimeout 120s
attr unit s
par Lab661.router2.ipv4.arp proxyArpInterfaces "\"*\""
scalar Lab661.router2.ipv4.arp arpResolutionFailed:count 0
attr recordingmode count
attr title "ARP failed resolutions, count"
scalar Lab661.router2.ipv4.arp arpResolutionCompleted:count 0
attr recordingmode count
attr title "ARP completed resolutions, count"
scalar Lab661.router2.ipv4.arp arpResolutionInitiated:count 0
attr recordingmode count
attr title "ARP initiated resolutions, count"
scalar Lab661.router2.ipv4.arp arpReplySent:count 0
attr recordingmode count
attr source arpReplySent
attr title "ARP replies sent, count"
scalar Lab661.router2.ipv4.arp arpReplySent:sum(packetBytes) 0
attr recordingmode sum(packetBytes)
attr source arpReplySent
attr title "ARP replies sent, sum(packetBytes)"
scalar Lab661.router2.ipv4.arp arpRequestSent:count 0
attr recordingmode count
attr source arpRequestSent
attr title "ARP request sent, count"
scalar Lab661.router2.ipv4.arp arpRequestSent:sum(packetBytes) 0
[...]
attr unit s
par Lab661.receiver3.ipv4.icmp typename "\"inet.networklayer.ipv4.Icmp\""
par Lab661.receiver3.ipv4.icmp interfaceTableModule "\"Lab661.receiver3.interfaceTable\""
par Lab661.receiver3.ipv4.icmp routingTableModule "\"Lab661.receiver3.ipv4.routingTable\""
par Lab661.receiver3.ipv4.icmp crcMode "\"declared\""
attr enum declared,computed
attr mutable ""
par Lab661.receiver3.ipv4.icmp quoteLength 8B
attr mutable ""
attr unit B
par Lab661.receiver3.ipv4.mp typename "\"inet.common.MessageDispatcher\""
par Lab661.receiver3.ipv4.mp displayStringTextFormat "\"processed %p pk (%l)\""
par Lab661.receiver3.ipv4.mp forwardServiceRegistration true
par Lab661.receiver3.ipv4.mp forwardProtocolRegistration true
par Lab661.receiver3.ipv4.ip typename "\"inet.networklayer.ipv4.Ipv4\""
par Lab661.receiver3.ipv4.ip interfaceTableModule "\"Lab661.receiver3.interfaceTable\""
par Lab661.receiver3.ipv4.ip routingTableModule "\"Lab661.receiver3.ipv4.routingTable\""
par Lab661.receiver3.ipv4.ip arpModule "\"Lab661.receiver3.ipv4.arp\""
par Lab661.receiver3.ipv4.ip icmpModule "\"Lab661.receiver3.ipv4.icmp\""
par Lab661.receiver3.ipv4.ip crcMode "\"declared\""
attr enum declared,computed
par Lab661.receiver3.ipv4.ip timeToLive 32
par Lab661.receiver3.ipv4.ip multicastTimeToLive 32
par Lab661.receiver3.ipv4.ip fragmentTimeout 60s
attr unit s
par Lab661.receiver3.ipv4.ip limitedBroadcast false
par Lab661.receiver3.ipv4.ip directBroadcastInterfaces "\"\""
scalar Lab661.receiver3.ipv4.ip packetDropAddressResolutionFailed:count 0
attr interpolationmode none
attr recordingmode count
attr source packetDropReasonIsAddressResolutionFailed(packetDropped)
attr title "packet drop: address resolution failed, count"
scalar Lab661.receiver3.ipv4.ip packetDropAddressResolutionFailed:sum(packetBytes) 0
attr interpolationmode none
attr recordingmode sum(packetBytes)
attr source packetDropReasonIsAddressResolutionFailed(packetDropped)
attr title "packet drop: address resolution failed, sum(packetBytes)"
scalar Lab661.receiver3.ipv4.ip packetDropHopLimitReached:count 0
attr interpolationmode none
attr recordingmode count
attr source packetDropReasonIsHopLimitReached(packetDropped)
attr title "packet drop: hop limit reached, count"
scalar Lab661.receiver3.ipv4.ip packetDropHopLimitReached:sum(packetBytes) 0
attr interpolationmode none
attr recordingmode sum(packetBytes)
attr source packetDropReasonIsHopLimitReached(packetDropped)
attr title "packet drop: hop limit reached, sum(packetBytes)"
scalar Lab661.receiver3.ipv4.ip packetDropForwardingDisabled:count 0
attr interpolationmode none
attr recordingmode count
attr source packetDropReasonIsForwardingDisabled(packetDropped)
attr title "packet drop: forwarding disabled, count"
scalar Lab661.receiver3.ipv4.ip packetDropForwardingDisabled:sum(packetBytes) 0
attr interpolationmode none
attr recordingmode sum(packetBytes)
attr source packetDropReasonIsForwardingDisabled(packetDropped)
attr title "packet drop: forwarding disabled, sum(packetBytes)"
scalar Lab661.receiver3.ipv4.ip packetDropNoInterfaceFound:count 0
attr interpolationmode none
attr recordingmode count
attr source packetDropReasonIsNoInterfaceFound(packetDropped)
attr title "packet drop: no interface found, count"
scalar Lab661.receiver3.ipv4.ip packetDropNoInterfaceFound:sum(packetBytes) 0
attr interpolationmode none
attr recordingmode sum(packetBytes)
attr source packetDropReasonIsNoInterfaceFound(packetDropped)
attr title "packet drop: no interface found, sum(packetBytes)"
scalar Lab661.receiver3.ipv4.ip packetDropNoRouteFound:count 0
attr interpolationmode none
attr recordingmode count
attr source packetDropReasonIsNoRouteFound(packetDropped)
attr title "packet drop: no route found, count"
scalar Lab661.receiver3.ipv4.ip packetDropNoRouteFound:sum(packetBytes) 0
attr interpolationmode none
attr recordingmode sum(packetBytes)
attr source packetDropReasonIsNoRouteFound(packetDropped)
attr title "packet drop: no route found, sum(packetBytes)"
scalar Lab661.receiver3.ipv4.ip packetDropUndefined:count 0
attr interpolationmode none
attr recordingmode count
attr source packetDropReasonIsUndefined(packetDropped)
attr title "packet drop: undefined, count"
scalar Lab661.receiver3.ipv4.ip packetDropUndefined:sum(packetBytes) 0
attr interpolationmode none
attr recordingmode sum(packetBytes)
attr source packetDropReasonIsUndefined(packetDropped)
attr title "packet drop: undefined, sum(packetBytes)"
par Lab661.receiver3.ipv4.arp typename "\"inet.networklayer.arp.ipv4.Arp\""
par Lab661.receiver3.ipv4.arp interfaceTableModule "\"Lab661.receiver3.interfaceTable\""
par Lab661.receiver3.ipv4.arp routingTableModule "\"Lab661.receiver3.ipv4.routingTable\""
par Lab661.receiver3.ipv4.arp retryTimeout 1s
attr unit s
par Lab661.receiver3.ipv4.arp retryCount 3
par Lab661.receiver3.ipv4.arp cacheTimeout 120s
attr unit s
par Lab661.receiver3.ipv4.arp proxyArpInterfaces "\"\""
scalar Lab661.receiver3.ipv4.arp arpResolutionFailed:count 0
attr recordingmode count
attr title "ARP failed resolutions, count"
scalar Lab661.receiver3.ipv4.arp arpResolutionCompleted:count 0
attr recordingmode count
attr title "ARP completed resolutions, count"
scalar Lab661.receiver3.ipv4.arp arpResolutionInitiated:count 0
attr recordingmode count
attr title "ARP initiated resolutions, count"
scalar Lab661.receiver3.ipv4.arp arpReplySent:count 0
attr recordingmode count
attr source arpReplySent
attr title "ARP replies sent, count"
scalar Lab661.receiver3.ipv4.arp arpReplySent:sum(packetBytes) 0
attr recordingmode sum(packetBytes)
attr source arpReplySent
attr title "ARP replies sent, sum(packetBytes)"
scalar Lab661.receiver3.ipv4.arp arpRequestSent:count 0
attr recordingmode count
attr source arpRequestSent
attr title "ARP request sent, count"
scalar Lab661.receiver3.ipv4.arp arpRequestSent:sum(packetBytes) 0
attr recordingmode sum(packetBytes)
attr source arpRequestSent
attr title "ARP request sent, sum(packetBytes)"
par Lab661.receiver3.ipv4.lp typename "\"inet.common.MessageDispatcher\""
par Lab661.receiver3.ipv4.lp displayStringTextFormat "\"processed %p pk (%l)\""
par Lab661.receiver3.ipv4.lp forwardServiceRegistration true
par Lab661.receiver3.ipv4.lp forwardProtocolRegistration true
par Lab661.receiver3.ipv4 typename "\"inet.networklayer.ipv4.Ipv4NetworkLayer\""
par Lab661.receiver3.ipv4 forwarding false
par Lab661.receiver3.ipv4 multicastForwarding false
par Lab661.receiver3.ipv4 interfaceTableModule "\"Lab661.receiver3.interfaceTable\""
par Lab661.receiver3.ipv4 displayStringTextFormat "\"%i\""
par Lab661.receiver3.nl typename "\"inet.common.MessageDispatcher\""
par Lab661.receiver3.nl displayStringTextFormat "\"processed %p pk (%l)\""
par Lab661.receiver3.nl forwardServiceRegistration true
par Lab661.receiver3.nl forwardProtocolRegistration true
par Lab661.receiver3.udp typename "\"inet.transportlayer.udp.Udp\""
par Lab661.receiver3.udp interfaceTableModule "\"Lab661.receiver3.interfaceTable\""
par Lab661.receiver3.udp icmpModule "\"^.ipv4.icmp\""
par Lab661.receiver3.udp icmpv6Module "\"^.ipv6.icmpv6\""
par Lab661.receiver3.udp crcMode "\"declared\""
attr enum disabled,declared,computed
par Lab661.receiver3.udp defaultMulticastLoop true
scalar Lab661.receiver3.udp packetReceived:count 0
attr interpolationmode none
attr recordingmode count
attr source packetReceived
attr title "packets received, count"
scalar Lab661.receiver3.udp packetReceived:sum(packetBytes) 0
attr interpolationmode none
attr recordingmode sum(packetBytes)
attr source packetReceived
attr title "packets received, sum(packetBytes)"
scalar Lab661.receiver3.udp packetSent:count 0
attr interpolationmode none
attr recordingmode count
attr source packetSent
attr title "packets sent, count"
scalar Lab661.receiver3.udp packetSent:sum(packetBytes) 0
attr interpolationmode none
attr recordingmode sum(packetBytes)
attr source packetSent
attr title "packets sent, sum(packetBytes)"
scalar Lab661.receiver3.udp passedUpPk:count 0
attr interpolationmode none
attr recordingmode count
attr source packetSentToUpper
attr title "packets passed up, count"
scalar Lab661.receiver3.udp droppedPkWrongPort:count 0
attr interpolationmode none
attr recordingmode count
attr source packetDropReasonIsNoPortFound(packetDropped)
attr title "packets dropped (wrong port), count"
scalar Lab661.receiver3.udp droppedPkBadChecksum:count 0
attr interpolationmode none
attr recordingmode count
attr source packetDropReasonIsIncorrectlyReceived(packetDropped)
attr title "packets dropped (checksum error), count"
par Lab661.receiver3.tcp.conn-5 typename "\"inet.transportlayer.tcp.TcpConnection\""
par Lab661.receiver3.tcp.conn-25 typename "\"inet.transportlayer.tcp.TcpConnection\""
par Lab661.receiver3.tcp typename "\"inet.transportlayer.tcp.Tcp\""
par Lab661.receiver3.tcp crcMode "\"declared\""
attr enum declared,computed
par Lab661.receiver3.tcp advertisedWindow 65535
par Lab661.receiver3.tcp delayedAcksEnabled false
par Lab661.receiver3.tcp nagleEnabled true
par Lab661.receiver3.tcp limitedTransmitEnabled false
par Lab661.receiver3.tcp increasedIWEnabled false
par Lab661.receiver3.tcp sackSupport false
par Lab661.receiver3.tcp windowScalingSupport false
par Lab661.receiver3.tcp windowScalingFactor -1
par Lab661.receiver3.tcp timestampSupport false
par Lab661.receiver3.tcp mss 1460
par Lab661.receiver3.tcp msl 120s
attr unit s
par Lab661.receiver3.tcp tcpAlgorithmClass "\"TcpReno\""
par Lab661.receiver3.tcp useDataNotification false
par Lab661.receiver3.tcp dupthresh 3
par Lab661.receiver3.tcp initialSsthresh 65536
par Lab661.receiver3.tcp stopOperationExtraTime 0s
attr unit s
par Lab661.receiver3.tcp stopOperationTimeout 2s
attr unit s
par Lab661.receiver3.tcp ecnWillingness false
par Lab661.receiver3.tcp dctcpGamma 0.0625
par Lab661.receiver3.tn typename "\"inet.common.MessageDispatcher\""
par Lab661.receiver3.tn displayStringTextFormat "\"processed %p pk (%l)\""
par Lab661.receiver3.tn forwardServiceRegistration true
par Lab661.receiver3.tn forwardProtocolRegistration true
par Lab661.receiver3.app[0].thread_25 typename "\"inet.applications.tcpapp.TcpSinkAppThread\""
scalar Lab661.receiver3.app[0].thread_25 packetReceived:count 2037
attr interpolationmode none
attr recordingmode count
attr source packetReceived
attr title "packets received, count"
scalar Lab661.receiver3.app[0].thread_25 packetReceived:sum(packetBytes) 3311280
attr interpolationmode none
attr recordingmode sum(packetBytes)
attr source packetReceived
attr title "packets received, sum(packetBytes)"
statistic Lab661.receiver3.app[0].thread_25 endToEndDelay:histogram
field count 2268
field mean 10.439372789314
field stddev 4.3927856896837
field min 0.0466496
field max 17.914379281753
field sum 23676.497486163
field sqrsum 290913.09898712
attr interpolationmode none
attr recordingmode histogram
attr source dataAge(packetReceived)
attr title "end-to-end delay"
attr unit s
bin	-inf	0
bin	0	3
bin	0.2	13
bin	0.4	12
bin	0.6	2
bin	0.8	0
bin	1	0
bin	1.2	0
bin	1.4	0
bin	1.6	0
bin	1.8	0
bin	2	0
bin	2.2	0
bin	2.4	12
bin	2.6	6
bin	2.8	13
bin	3	8
bin	3.2	11
bin	3.4	16
bin	3.6	23
bin	3.8	25
bin	4	29
bin	4.2	33
bin	4.4	34
bin	4.6	33
bin	4.8	28
bin	5	26
bin	5.2	29
bin	5.4	33
bin	5.6	33
bin	5.8	33
bin	6	29
bin	6.2	25
bin	6.4	30
bin	6.6	33
bin	6.8	33
bin	7	33
bin	7.2	29
bin	7.4	25
bin	7.6	29
bin	7.8	33
bin	8	33
bin	8.2	34
bin	8.4	28
bin	8.6	26
bin	8.8	29
bin	9	33
bin	9.2	33
bin	9.4	33
bin	9.6	31
bin	9.8	23
bin	10	30
bin	10.2	33
bin	10.4	33
bin	10.6	33
bin	10.8	33
bin	11	21
bin	11.2	29
bin	11.4	33
bin	11.6	33
bin	11.8	34
bin	12	15
bin	12.2	41
bin	12.4	27
bin	12.6	33
bin	12.8	33
bin	13	33
bin	13.2	18
bin	13.4	40
bin	13.6	26
bin	13.8	32
bin	14	34
bin	14.2	33
bin	14.4	20
bin	14.6	37
bin	14.8	28
bin	15	31
bin	15.2	33
bin	15.4	33
bin	15.6	23
bin	15.8	35
bin	16	27
bin	16.2	32
bin	16.4	33
bin	16.6	33
bin	16.8	25
bin	17	33
bin	17.2	27
bin	17.4	31
bin	17.6	34
bin	17.8	19
bin	18	0
statistic Lab661.receiver3.app[0].thread_25 endToEndDelay:weightedHistogram
field count 2268
field mean 10.439372789314
field stddev 4.3927856896836
field min 0.0466496
field max 17.914379281753
field weights 26490240
field weightedSum 276541490.63839
field sqrSumWeights 309406003200
field weightedSqrSum 3397864996.1696
attr interpolationmode none
attr recordingmode weightedHistogram
attr source dataAge(packetReceived)
attr title "end-to-end delay, weightedHistogram"
attr unit s
bin	-inf	0
bin	0	35040
bin	0.2	151840
bin	0.4	140160
bin	0.6	23360
bin	0.8	0
bin	1	0
bin	1.2	0
bin	1.4	0
bin	1.6	0
bin	1.8	0
bin	2	0
bin	2.2	0
bin	2.4	140160
bin	2.6	70080
bin	2.8	151840
bin	3	93440
bin	3.2	128480
bin	3.4	186880
bin	3.6	268640
bin	3.8	292000
bin	4	338720
bin	4.2	385440
bin	4.4	397120
bin	4.6	385440
bin	4.8	327040
bin	5	303680
bin	5.2	338720
bin	5.4	385440
bin	5.6	385440
bin	5.8	385440
bin	6	338720
bin	6.2	292000
bin	6.4	350400
bin	6.6	385440
bin	6.8	385440
bin	7	385440
bin	7.2	338720
bin	7.4	292000
bin	7.6	338720
bin	7.8	385440
bin	8	385440
bin	8.2	397120
bin	8.4	327040
bin	8.6	303680
bin	8.8	338720
bin	9	385440
bin	9.2	385440
bin	9.4	385440
bin	9.6	362080
bin	9.8	268640
bin	10	350400
bin	10.2	385440
bin	10.4	385440
bin	10.6	385440
bin	10.8	385440
bin	11	245280
bin	11.2	338720
bin	11.4	385440
bin	11.6	385440
bin	11.8	397120
bin	12	175200
bin	12.2	478880
bin	12.4	315360
bin	12.6	385440
bin	12.8	385440
bin	13	385440
bin	13.2	210240
bin	13.4	467200
bin	13.6	303680
bin	13.8	373760
bin	14	397120
bin	14.2	385440
bin	14.4	233600
bin	14.6	432160
bin	14.8	327040
bin	15	362080
bin	15.2	385440
bin	15.4	385440
bin	15.6	268640
bin	15.8	408800
bin	16	315360
bin	16.2	373760
bin	16.4	385440
bin	16.6	385440
bin	16.8	292000
bin	17	385440
bin	17.2	315360
bin	17.4	362080
bin	17.6	397120
bin	17.8	221920
bin	18	0
par Lab661.receiver3.app[0] typename "\"inet.applications.tcpapp.TcpSinkApp\""
par Lab661.receiver3.app[0] localAddress "\"\""
par Lab661.receiver3.app[0] localPort 1001
par Lab661.receiver3.app[0] serverThreadModuleType "\"inet.applications.tcpapp.TcpSinkAppThread\""
par Lab661.receiver3.app[0] stopOperationExtraTime -1s
attr unit s
par Lab661.receiver3.app[0] stopOperationTimeout 2s
attr unit s
scalar Lab661.receiver3.app[0] bytesRcvd 3311280
scalar Lab661.receiver3.app[0] packetReceived:count 2037
attr checkSignals false
attr interpolationmode none
attr recordingmode count
attr source packetReceived
attr title "packets received, count"
scalar Lab661.receiver3.app[0] packetReceived:sum(packetBytes) 3311280
attr checkSignals false
attr interpolationmode none
attr recordingmode sum(packetBytes)
attr source packetReceived
attr title "packets received, sum(packetBytes)"
statistic Lab661.receiver3.app[0] endToEndDelay:histogram
field count 2268
field mean 10.439372789314
field stddev 4.3927856896837
field min 0.0466496
field max 17.914379281753
field sum 23676.497486163
field sqrsum 290913.09898712
attr checkSignals false
attr interpolationmode none
attr recordingmode histogram
attr source dataAge(packetReceived)
attr title "end-to-end delay"
attr unit s
bin	-inf	0
bin	0	3
bin	0.2	13
bin	0.4	12
bin	0.6	2
bin	0.8	0
bin	1	0
bin	1.2	0
bin	1.4	0
bin	1.6	0
bin	1.8	0
bin	2	0
bin	2.2	0
bin	2.4	12
bin	2.6	6
bin	2.8	13
bin	3	8
bin	3.2	11
bin	3.4	16
bin	3.6	23
bin	3.8	25
bin	4	29
bin	4.2	33
bin	4.4	34
bin	4.6	33
bin	4.8	28
bin	5	26
bin	5.2	29
bin	5.4	33
bin	5.6	33
bin	5.8	33
bin	6	29
bin	6.2	25
bin	6.4	30
bin	6.6	33
bin	6.8	33
bin	7	33
bin	7.2	29
bin	7.4	25
bin	7.6	29
bin	7.8	33
bin	8	33
bin	8.2	34
bin	8.4	28
bin	8.6	26
bin	8.8	29
bin	9	33
bin	9.2	33
bin	9.4	33
bin	9.6	31
bin	9.8	23
bin	10	30
bin	10.2	33
bin	10.4	33
bin	10.6	33
bin	10.8	33
bin	11	21
bin	11.2	29
bin	11.4	33
bin	11.6	33
bin	11.8	34
bin	12	15
bin	12.2	41
bin	12.4	27
bin	12.6	33
bin	12.8	33
bin	13	33
bin	13.2	18
bin	13.4	40
bin	13.6	26
bin	13.8	32
bin	14	34
bin	14.2	33
bin	14.4	20
bin	14.6	37
bin	14.8	28
bin	15	31
bin	15.2	33
bin	15.4	33
bin	15.6	23
bin	15.8	35
bin	16	27
bin	16.2	32
bin	16.4	33
bin	16.6	33
bin	16.8	25
bin	17	33
bin	17.2	27
bin	17.4	31
bin	17.6	34
bin	17.8	19
bin	18	0
statistic Lab661.receiver3.app[0] endToEndDelay:weightedHistogram
field count 2268
field mean 10.439372789314
field stddev 4.3927856896836
field min 0.0466496
field max 17.914379281753
field weights 26490240
field weightedSum 276541490.63839
field sqrSumWeights 309406003200
field weightedSqrSum 3397864996.1696
attr checkSignals false
attr interpolationmode none
attr recordingmode weightedHistogram
attr source dataAge(packetReceived)
attr title "end-to-end delay, weightedHistogram"
attr unit s
bin	-inf	0
bin	0	35040
bin	0.2	151840
bin	0.4	140160
bin	0.6	23360
bin	0.8	0
bin	1	0
bin	1.2	0
bin	1.4	0
bin	1.6	0
bin	1.8	0
bin	2	0
bin	2.2	0
bin	2.4	140160
bin	2.6	70080
bin	2.8	151840
bin	3	93440
bin	3.2	128480
bin	3.4	186880
bin	3.6	268640
bin	3.8	292000
bin	4	338720
bin	4.2	385440
bin	4.4	397120
bin	4.6	385440
bin	4.8	327040
bin	5	303680
bin	5.2	338720
bin	5.4	385440
bin	5.6	385440
bin	5.8	385440
bin	6	338720
bin	6.2	292000
bin	6.4	350400
bin	6.6	385440
bin	6.8	385440
bin	7	385440
bin	7.2	338720
bin	7.4	292000
bin	7.6	338720
bin	7.8	385440
bin	8	385440
bin	8.2	397120
bin	8.4	327040
bin	8.6	303680
bin	8.8	338720
bin	9	385440
bin	9.2	385440
bin	9.4	385440
bin	9.6	362080
bin	9.8	268640
bin	10	350400
bin	10.2	385440
bin	10.4	385440
bin	10.6	385440
bin	10.8	385440
bin	11	245280
bin	11.2	338720
bin	11.4	385440
bin	11.6	385440
bin	11.8	397120
bin	12	175200
bin	12.2	478880
bin	12.4	315360
bin	12.6	385440
bin	12.8	385440
bin	13	385440
bin	13.2	210240
bin	13.4	467200
bin	13.6	303680
bin	13.8	373760
bin	14	397120
bin	14.2	385440
bin	14.4	233600
bin	14.6	432160
bin	14.8	327040
bin	15	362080
bin	15.2	385440
bin	15.4	385440
bin	15.6	268640
bin	15.8	408800
bin	16	315360
bin	16.2	373760
bin	16.4	385440
bin	16.6	385440
bin	16.8	292000
bin	17	385440
bin	17.2	315360
bin	17.4	362080
bin	17.6	397120
bin	17.8	221920
bin	18	0
par Lab661.receiver3.at typename "\"inet.common.MessageDispatcher\""
par Lab661.receiver3.at displayStringTextFormat "\"processed %p pk (%l)\""
par Lab661.receiver3.at forwardServiceRegistration true
par Lab661.receiver3.at forwardProtocolRegistration true
par Lab661.receiver3 typename "\"inet.node.inet.StandardHost\""
par Lab661.receiver3 hasStatus false
par Lab661.receiver3 osgModel "\"\""
par Lab661.receiver3 osgModelColor "\"\""
par Lab661.receiver3 canvasImage "\"\""
par Lab661.receiver3 canvasImageColor "\"\""
par Lab661.receiver3 recordPcap false
par Lab661.receiver3 numPcapRecorders 0
par Lab661.receiver3 numLoInterfaces 1
par Lab661.receiver3 numWlanInterfaces 0
par Lab661.receiver3 numEthInterfaces 0
par Lab661.receiver3 numPppInterfaces 0
par Lab661.receiver3 numTunInterfaces 0
par Lab661.receiver3 numVirtInterfaces 0
par Lab661.receiver3 fcsMode "\"declared\""
attr enum declared,computed
par Lab661.receiver3 hasIpv4 true
par Lab661.receiver3 hasIpv6 false
par Lab661.receiver3 hasGn false
par Lab661.receiver3 forwarding false
par Lab661.receiver3 multicastForwarding false
par Lab661.receiver3 hasUdp true
par Lab661.receiver3 hasTcp true
par Lab661.receiver3 hasSctp false
par Lab661.receiver3 numApps 1
par Lab661.configurator typename "\"inet.networklayer.configurator.ipv4.Ipv4NetworkConfigurator\""
par Lab661.configurator minLinkWeight 0.001
par Lab661.configurator configureIsolatedNetworksSeparatly false
par Lab661.configurator config "<config>...</config> at content:1"
par Lab661.configurator assignAddresses true
par Lab661.configurator assignUniqueAddresses true
par Lab661.configurator assignDisjunctSubnetAddresses true
par Lab661.configurator addStaticRoutes true
par Lab661.configurator addDefaultRoutes true
par Lab661.configurator addSubnetRoutes true
par Lab661.configurator addDirectRoutes true
par Lab661.configurator optimizeRoutes true
par Lab661.configurator dumpTopology false
par Lab661.configurator dumpLinks false
par Lab661.configurator dumpAddresses false
par Lab661.configurator dumpRoutes false
par Lab661.configurator dumpConfig "\"\""
par Lab661 typename "\"inet.examples.lab_dup_58661_2024.Lab661\""

